
     RDKit          3D

 22 24  0  0  0  0  0  0  0  0999 V2000
  -20.5870   -3.9290   30.2880 O   0  0  0  0  0  0  0  0  0  0  0  0
  -21.9840   -3.4930   30.2670 S   0  0  1  0  0  0  0  0  0  0  0  0
  -21.9450   -2.4040   29.2880 O   0  0  0  0  0  0  0  0  0  0  0  0
  -23.0330   -4.7560   29.7870 N   0  0  0  0  0  0  0  0  0  0  0  0
  -24.4580   -4.5040   29.6550 C   0  0  0  0  0  0  0  0  0  0  0  0
  -25.2580   -5.0960   30.8150 C   0  0  0  0  0  0  0  0  0  0  0  0
  -25.5800   -4.3150   31.9150 C   0  0  0  0  0  0  0  0  0  0  0  0
  -26.2930   -4.8430   32.9390 C   0  0  0  0  0  0  0  0  0  0  0  0
  -26.7010   -6.1340   32.8800 C   0  0  0  0  0  0  0  0  0  0  0  0
  -26.3850   -6.9080   31.7770 C   0  0  0  0  0  0  0  0  0  0  0  0
  -25.6720   -6.3800   30.7570 N   0  0  0  0  0  0  0  0  0  0  0  0
  -22.5270   -2.9450   31.9060 C   0  0  0  0  0  0  0  0  0  0  0  0
  -22.9290   -1.6180   31.8510 C   0  0  0  0  0  0  0  0  0  0  0  0
  -23.3900   -0.9950   33.0070 C   0  0  0  0  0  0  0  0  0  0  0  0
  -23.4470   -1.7030   34.2030 C   0  0  0  0  0  0  0  0  0  0  0  0
  -24.1210   -0.6400   35.6790 Br  0  0  0  0  0  0  0  0  0  0  0  0
  -23.0400   -3.0490   34.2500 C   0  0  0  0  0  0  0  0  0  0  0  0
  -23.0940   -3.7790   35.4510 C   0  0  0  0  0  0  0  0  0  0  0  0
  -22.6880   -5.1080   35.4720 C   0  0  0  0  0  0  0  0  0  0  0  0
  -22.2310   -5.7250   34.3150 C   0  0  0  0  0  0  0  0  0  0  0  0
  -22.1770   -5.0060   33.1320 C   0  0  0  0  0  0  0  0  0  0  0  0
  -22.5840   -3.6600   33.1100 C   0  0  0  0  0  0  0  0  0  0  0  0
  2  4  1  6
  2  1  2  0
  2  3  2  0
  2 12  1  0
 15 16  1  0
 17 15  2  0
 14 15  1  0
  5  4  1  0
 22 17  1  0
 17 18  1  0
  6 11  2  0
 11 10  1  0
 12 22  2  0
 22 21  1  0
 12 13  1  0
 13 14  2  0
 21 20  2  0
 20 19  1  0
 18 19  2  0
  5  6  1  0
  6  7  1  0
 10  9  2  0
  9  8  1  0
  8  7  2  0
M  END
$$$$
