
     RDKit          3D

130134  0  0  0  0  0  0  0  0999 V2000
  -19.4970  -28.7830   28.9970 C   0  0  0  0  0  0  0  0  0  0  0  0
  -18.4380  -29.7620   28.5190 C   0  0  0  0  0  0  0  0  0  0  0  0
  -18.2910  -29.9350   27.3200 O   0  0  0  0  0  0  0  0  0  0  0  0
  -17.6740  -30.4570   29.3770 N   0  0  0  0  0  0  0  0  0  0  0  0
  -17.7920  -30.4320   30.8280 C   0  0  1  0  0  0  0  0  0  0  0  0
  -17.3900  -31.7920   31.4620 C   0  0  0  0  0  0  0  0  0  0  0  0
  -15.9030  -32.1190   31.6300 C   0  0  0  0  0  0  0  0  0  0  0  0
  -15.2400  -32.5490   30.3290 C   0  0  0  0  0  0  0  0  0  0  0  0
  -13.9070  -33.2420   30.5540 C   0  0  0  0  0  0  0  0  0  0  0  0
  -13.2650  -33.5670   29.2510 N   0  0  0  0  0  4  0  0  0  0  0  0
  -17.0800  -29.2420   31.4880 C   0  0  0  0  0  0  0  0  0  0  0  0
  -17.6430  -28.6420   32.4010 O   0  0  0  0  0  0  0  0  0  0  0  0
  -15.8830  -28.8680   31.0200 N   0  0  0  0  0  0  0  0  0  0  0  0
  -15.1410  -27.7630   31.6490 C   0  0  1  0  0  0  0  0  0  0  0  0
  -13.6240  -27.9170   31.4600 C   0  0  0  0  0  0  0  0  0  0  0  0
  -13.0220  -29.1720   32.0810 C   0  0  0  0  0  0  0  0  0  0  0  0
  -13.0670  -29.1480   33.6050 C   0  0  0  0  0  0  0  0  0  0  0  0
  -12.9140  -30.5410   34.1950 C   0  0  0  0  0  0  0  0  0  0  0  0
  -13.3200  -30.5620   35.6290 N   0  0  0  0  0  4  0  0  0  0  0  0
  -15.6010  -26.3920   31.1560 C   0  0  0  0  0  0  0  0  0  0  0  0
  -15.2110  -25.9450   30.0750 O   0  0  0  0  0  0  0  0  0  0  0  0
  -16.4410  -25.7420   31.9600 N   0  0  0  0  0  0  0  0  0  0  0  0
  -16.8680  -24.3690   31.7240 C   0  0  1  0  0  0  0  0  0  0  0  0
  -18.3740  -24.2930   31.4750 C   0  0  0  0  0  0  0  0  0  0  0  0
  -18.8610  -25.0740   30.2590 C   0  0  0  0  0  0  0  0  0  0  0  0
  -20.3630  -25.3440   30.3310 C   0  0  0  0  0  0  0  0  0  0  0  0
  -21.1650  -24.1270   30.1660 N   0  0  0  0  0  0  0  0  0  0  0  0
  -22.4510  -23.9820   30.5100 C   0  0  0  0  0  0  0  0  0  0  0  0
  -23.0600  -22.8120   30.2930 N   0  0  0  0  0  0  0  0  0  0  0  0
  -23.1380  -24.9750   31.0820 N   0  0  0  0  0  4  0  0  0  0  0  0
  -16.4850  -23.5270   32.9360 C   0  0  0  0  0  0  0  0  0  0  0  0
  -16.6660  -23.9560   34.0780 O   0  0  0  0  0  0  0  0  0  0  0  0
  -15.9450  -22.3400   32.6790 N   0  0  0  0  0  0  0  0  0  0  0  0
  -15.5960  -21.3890   33.7240 C   0  0  1  0  0  0  0  0  0  0  0  0
  -14.0750  -21.1600   33.7710 C   0  0  0  0  0  0  0  0  0  0  0  0
  -13.2870  -22.4080   34.0840 C   0  0  0  0  0  0  0  0  0  0  0  0
  -13.0520  -22.7950   35.4070 C   0  0  0  0  0  0  0  0  0  0  0  0
  -12.3280  -23.9410   35.7020 C   0  0  0  0  0  0  0  0  0  0  0  0
  -11.8380  -24.7270   34.6760 C   0  0  0  0  0  0  0  0  0  0  0  0
  -11.1180  -25.8710   34.9660 O   0  0  0  0  0  0  0  0  0  0  0  0
  -12.0700  -24.3710   33.3550 C   0  0  0  0  0  0  0  0  0  0  0  0
  -12.7850  -23.2170   33.0670 C   0  0  0  0  0  0  0  0  0  0  0  0
  -16.2930  -20.0650   33.4770 C   0  0  0  0  0  0  0  0  0  0  0  0
  -16.2880  -19.5500   32.3440 O   0  0  0  0  0  0  0  0  0  0  0  0
  -16.8740  -19.5010   34.5350 N   0  0  0  0  0  0  0  0  0  0  0  0
  -17.3840  -18.1330   34.4850 C   0  0  1  0  0  0  0  0  0  0  0  0
  -18.2130  -17.8060   35.7290 C   0  0  0  0  0  0  0  0  0  0  0  0
  -17.3920  -17.7800   36.8890 O   0  0  0  0  0  0  0  0  0  0  0  0
  -16.2210  -17.1530   34.3920 C   0  0  0  0  0  0  0  0  0  0  0  0
  -15.0830  -17.4840   34.7450 O   0  0  0  0  0  0  0  0  0  0  0  0
  -16.5300  -15.9480   33.9320 N   0  0  0  0  0  0  0  0  0  0  0  0
  -15.6030  -14.8160   33.9480 C   0  0  1  0  0  0  0  0  0  0  0  0
  -16.3450  -13.5480   33.5370 C   0  0  0  0  0  0  0  0  0  0  0  0
  -15.4750  -12.3210   33.4400 C   0  0  0  0  0  0  0  0  0  0  0  0
  -16.2890  -11.1290   32.9940 C   0  0  0  0  0  0  0  0  0  0  0  0
  -15.4780   -9.9230   33.0320 N   0  0  0  0  0  0  0  0  0  0  0  0
  -15.2350   -9.1870   34.1160 C   0  0  0  0  0  0  0  0  0  0  0  0
  -15.7340   -9.5060   35.3090 N   0  0  0  0  0  0  0  0  0  0  0  0
  -14.4680   -8.1100   34.0040 N   0  0  0  0  0  4  0  0  0  0  0  0
  -14.9580  -14.5980   35.3220 C   0  0  0  0  0  0  0  0  0  0  0  0
  -13.7410  -14.4320   35.4140 O   0  0  0  0  0  0  0  0  0  0  0  0
  -15.8180  -14.5800   36.3540 N   0  0  0  0  0  0  0  0  0  0  0  0
  -15.4590  -14.4020   37.7650 C   0  0  1  0  0  0  0  0  0  0  0  0
  -14.9730  -12.9530   37.9430 C   0  0  0  0  0  0  0  0  0  0  0  0
  -16.6860  -14.6250   38.6640 C   0  0  0  0  0  0  0  0  0  0  0  0
  -16.4250  -14.5510   40.1820 C   0  0  0  0  0  0  0  0  0  0  0  0
  -15.9620  -15.8380   40.8700 C   0  0  0  0  0  0  0  0  0  0  0  0
  -15.6760  -15.5420   42.3320 C   0  0  0  0  0  0  0  0  0  0  0  0
  -14.5320  -15.7900   42.9750 C   0  0  0  0  0  0  0  0  0  0  0  0
  -13.3080  -16.4380   42.3600 C   0  0  0  0  0  0  0  0  0  0  0  0
  -12.3020  -15.4090   41.8430 C   0  0  0  0  0  0  0  0  0  0  0  0
  -11.0310  -16.1160   41.3360 C   0  0  0  0  0  0  0  0  0  0  0  0
   -9.9850  -15.2020   40.6760 C   0  0  1  0  0  0  0  0  0  0  0  0
   -9.7310  -13.9920   41.5820 C   0  0  0  0  0  0  0  0  0  0  0  0
   -8.7120  -16.0360   40.5580 C   0  0  0  0  0  0  0  0  0  0  0  0
   -7.8010  -15.8800   41.3740 O   0  0  0  0  0  0  0  0  0  0  0  0
   -8.6520  -16.8900   39.6090 N   0  0  0  0  0  0  0  0  0  0  0  0
   -7.4880  -17.7720   39.3960 C   0  0  1  0  0  0  0  0  0  0  0  0
   -7.8550  -18.8820   38.3910 C   0  0  0  0  0  0  0  0  0  0  0  0
   -8.8070  -19.9400   38.9230 C   0  0  0  0  0  0  0  0  0  0  0  0
   -8.7480  -20.3980   40.2490 C   0  0  0  0  0  0  0  0  0  0  0  0
   -9.6200  -21.3850   40.7040 C   0  0  0  0  0  0  0  0  0  0  0  0
  -10.5490  -21.9390   39.8380 C   0  0  0  0  0  0  0  0  0  0  0  0
  -10.6020  -21.5170   38.5180 C   0  0  0  0  0  0  0  0  0  0  0  0
   -9.7340  -20.5310   38.0670 C   0  0  0  0  0  0  0  0  0  0  0  0
   -6.2050  -17.0700   38.9260 C   0  0  0  0  0  0  0  0  0  0  0  0
   -5.1330  -17.6720   38.9870 O   0  0  0  0  0  0  0  0  0  0  0  0
   -6.3220  -15.8300   38.4570 N   0  0  0  0  0  0  0  0  0  0  0  0
   -5.1890  -14.9610   38.1130 C   0  0  1  0  0  0  0  0  0  0  0  0
   -5.7220  -13.6530   37.5010 C   0  0  0  0  0  0  0  0  0  0  0  0
   -4.7680  -12.8130   36.6860 C   0  0  0  0  0  0  0  0  0  0  0  0
   -3.4320  -13.0030   36.5130 C   0  0  0  0  0  0  0  0  0  0  0  0
   -2.9100  -12.0180   35.7110 N   0  0  0  0  0  0  0  0  0  0  0  0
   -3.9140  -11.1600   35.3460 C   0  0  0  0  0  0  0  0  0  0  0  0
   -3.8790  -10.0110   34.5410 C   0  0  0  0  0  0  0  0  0  0  0  0
   -5.0610   -9.3360   34.3430 C   0  0  0  0  0  0  0  0  0  0  0  0
   -6.2670   -9.7730   34.9350 C   0  0  0  0  0  0  0  0  0  0  0  0
   -6.2980  -10.9110   35.7420 C   0  0  0  0  0  0  0  0  0  0  0  0
   -5.1020  -11.6240   35.9530 C   0  0  0  0  0  0  0  0  0  0  0  0
   -4.3820  -14.6560   39.3740 C   0  0  0  0  0  0  0  0  0  0  0  0
   -5.1070  -14.5500   40.6000 N   0  0  0  0  0  0  0  0  0  0  0  0
   -3.1640  -14.5370   39.3280 O   0  0  0  0  0  0  0  0  0  0  0  0
  -10.3960  -14.7610   39.3340 N   0  0  0  0  0  0  0  0  0  0  0  0
   -9.6270  -14.0270   38.5100 C   0  0  0  0  0  0  0  0  0  0  0  0
   -8.4950  -13.6480   38.8110 O   0  0  0  0  0  0  0  0  0  0  0  0
  -10.1780  -13.7050   37.1140 C   0  0  2  0  0  0  0  0  0  0  0  0
  -11.0490  -12.4440   37.1250 C   0  0  0  0  0  0  0  0  0  0  0  0
  -11.3960  -11.8780   35.7430 C   0  0  1  0  0  0  0  0  0  0  0  0
  -12.3560  -10.7030   35.8810 C   0  0  0  0  0  0  0  0  0  0  0  0
  -10.1540  -11.4470   34.9660 C   0  0  0  0  0  0  0  0  0  0  0  0
  -10.8950  -14.8350   36.5210 N   0  0  0  0  0  0  0  0  0  0  0  0
  -10.2650  -15.9610   36.1900 C   0  0  0  0  0  0  0  0  0  0  0  0
   -9.0590  -16.1290   36.3820 O   0  0  0  0  0  0  0  0  0  0  0  0
  -11.1090  -17.0780   35.5870 C   0  0  2  0  0  0  0  0  0  0  0  0
  -11.3430  -16.8570   34.0800 C   0  0  0  0  0  0  0  0  0  0  0  0
  -11.9460  -18.0610   33.3450 C   0  0  1  0  0  0  0  0  0  0  0  0
  -12.3630  -17.6610   31.9360 C   0  0  0  0  0  0  0  0  0  0  0  0
  -10.9690  -19.2290   33.2990 C   0  0  0  0  0  0  0  0  0  0  0  0
  -12.3870  -17.2480   36.2980 N   0  0  0  0  0  0  0  0  0  0  0  0
  -12.4030  -17.5970   37.5830 C   0  0  0  0  0  0  0  0  0  0  0  0
  -11.3810  -17.7930   38.2390 O   0  0  0  0  0  0  0  0  0  0  0  0
  -13.7780  -17.7630   38.2250 C   0  0  2  0  0  0  0  0  0  0  0  0
  -14.4080  -19.0420   37.6790 C   0  0  0  0  0  0  0  0  0  0  0  0
  -15.4380  -19.7050   38.5690 C   0  0  0  0  0  0  0  0  0  0  0  0
  -15.8940  -21.0370   37.9910 C   0  0  0  0  0  0  0  0  0  0  0  0
  -15.5200  -22.1260   38.6490 N   0  0  0  0  0  0  0  0  0  0  0  0
  -16.5640  -21.0830   36.9520 O   0  0  0  0  0  0  0  0  0  0  0  0
  -14.6700  -16.6430   37.9190 N   0  0  0  0  0  0  0  0  0  0  0  0
  -14.3960  -15.4200   38.1400 C   0  0  0  0  0  0  0  0  0  0  0  0
  -13.3510  -15.0470   38.6480 O   0  0  0  0  0  0  0  0  0  0  0  0
  2  3  2  0
  2  1  1  0
  4  2  1  0
  5  4  1  0
 11  5  1  0
  5  6  1  1
 11 12  2  0
 13 11  1  0
  6  7  1  0
  7  8  1  0
  8  9  1  0
  9 10  1  0
 14 13  1  0
 20 14  1  0
 14 15  1  6
 20 21  2  0
 22 20  1  0
 15 16  1  0
 16 17  1  0
 17 18  1  0
 18 19  1  0
 23 22  1  0
 31 23  1  0
 23 24  1  1
 31 32  2  0
 33 31  1  0
 24 25  1  0
 25 26  1  0
 26 27  1  0
 27 28  1  0
 28 30  2  0
 28 29  1  0
 34 33  1  0
 43 34  1  0
 34 35  1  6
 43 44  2  0
 45 43  1  0
 35 36  1  0
 36 37  2  0
 36 42  1  0
 37 38  1  0
 42 41  2  0
 38 39  2  0
 41 39  1  0
 39 40  1  0
 46 45  1  0
 49 46  1  0
 46 47  1  1
 49 50  2  0
 51 49  1  0
 47 48  1  0
 52 51  1  0
 60 52  1  0
 52 53  1  1
 60 61  2  0
 62 60  1  0
 53 54  1  0
 54 55  1  0
 55 56  1  0
 56 57  1  0
 57 59  2  0
 57 58  1  0
129130  2  0
129 63  1  0
128129  1  0
 63 62  1  0
 63 65  1  0
 63 64  1  6
 65 66  1  0
 67 68  1  0
 66 67  1  0
 68 69  2  0
122128  1  0
120122  1  0
122123  1  6
120121  2  0
119120  1  0
123124  1  0
124125  1  0
125127  2  0
125126  1  0
114119  1  0
112114  1  0
114115  1  6
112113  2  0
111112  1  0
115116  1  0
116117  1  6
116118  1  0
106111  1  0
104106  1  0
106107  1  1
104105  2  0
103104  1  0
107108  1  0
108109  1  1
108110  1  0
 75 76  2  0
 73 75  1  0
 75 77  1  0
103 73  1  0
 73 72  1  0
 73 74  1  1
 72 71  1  0
 69 70  1  0
 70 71  1  0
 77 78  1  0
 78 86  1  0
 78 79  1  6
 86 87  2  0
 86 88  1  0
 79 80  1  0
 80 81  2  0
 80 85  1  0
 81 82  1  0
 85 84  2  0
 82 83  2  0
 84 83  1  0
 88 89  1  0
 89100  1  0
 89 90  1  1
100102  2  0
100101  1  0
 90 91  1  0
 91 92  2  0
 91 99  1  0
 92 93  1  0
 99 94  2  0
 99 98  1  0
 93 94  1  0
 94 95  1  0
 98 97  2  0
 95 96  2  0
 97 96  1  0
M  CHG  4  10   1  19   1  30   1  59   1
M  END
$$$$
