
     RDKit          3D

130134  0  0  0  0  0  0  0  0999 V2000
   -7.9409   -7.7705    3.4542 C   0  0  0  0  0  0  0  0  0  0  0  0
   -7.0403   -8.8154    4.0700 C   0  0  0  0  0  0  0  0  0  0  0  0
   -7.4286  -10.0316    3.9217 O   0  0  0  0  0  0  0  0  0  0  0  0
   -6.5264   -8.5336    5.3761 N   0  0  0  0  0  0  0  0  0  0  0  0
   -4.9367   -8.7422    5.4025 C   0  0  2  0  0  0  0  0  0  0  0  0
   -4.7771  -10.1968    5.9629 C   0  0  0  0  0  0  0  0  0  0  0  0
   -5.5849  -11.3341    5.3083 C   0  0  0  0  0  0  0  0  0  0  0  0
   -4.8377  -12.6139    5.2081 C   0  0  0  0  0  0  0  0  0  0  0  0
   -4.2595  -13.0315    6.5735 C   0  0  0  0  0  0  0  0  0  0  0  0
   -2.7858  -13.1732    6.4665 N   0  0  0  0  0  4  0  0  0  0  0  0
   -4.4627   -7.6915    6.4300 C   0  0  0  0  0  0  0  0  0  0  0  0
   -3.3570   -7.1386    6.2677 O   0  0  0  0  0  0  0  0  0  0  0  0
   -5.2721   -7.4292    7.4710 N   0  0  0  0  0  0  0  0  0  0  0  0
   -5.7362   -8.7553    6.9813 C   0  0  1  0  0  0  0  0  0  0  0  0
   -4.5468   -9.7880    7.1224 C   0  0  0  0  0  0  0  0  0  0  0  0
   -4.9047  -11.0234    7.8620 C   0  0  0  0  0  0  0  0  0  0  0  0
   -5.0717  -10.8403    9.3664 C   0  0  0  0  0  0  0  0  0  0  0  0
   -4.0419  -11.6321   10.1452 C   0  0  0  0  0  0  0  0  0  0  0  0
   -2.6108  -11.3008    9.6675 N   0  0  0  0  0  4  0  0  0  0  0  0
   -6.9200   -9.2680    7.8508 C   0  0  0  0  0  0  0  0  0  0  0  0
   -7.9999   -8.7221    7.7931 O   0  0  0  0  0  0  0  0  0  0  0  0
   -6.7127  -10.4205    8.5100 N   0  0  0  0  0  0  0  0  0  0  0  0
   -7.1436  -11.7169    8.0220 C   0  0  1  0  0  0  0  0  0  0  0  0
   -7.0963  -12.7715    9.1361 C   0  0  0  0  0  0  0  0  0  0  0  0
   -6.5126  -14.0798    8.7594 C   0  0  0  0  0  0  0  0  0  0  0  0
   -6.7861  -14.5335    7.3291 C   0  0  0  0  0  0  0  0  0  0  0  0
   -5.6510  -14.2707    6.4296 N   0  0  0  0  0  0  0  0  0  0  0  0
   -4.3401  -14.3214    6.7868 C   0  0  0  0  0  0  0  0  0  0  0  0
   -4.0046  -14.3683    8.0843 N   0  0  0  0  0  0  0  0  0  0  0  0
   -3.3866  -14.3754    5.8618 N   0  0  0  0  0  4  0  0  0  0  0  0
   -8.5664  -11.5609    7.4742 C   0  0  0  0  0  0  0  0  0  0  0  0
   -8.9702  -12.3537    6.6401 O   0  0  0  0  0  0  0  0  0  0  0  0
   -9.3399  -10.7074    8.1293 N   0  0  0  0  0  0  0  0  0  0  0  0
   -9.0558   -9.2790    8.1537 C   0  0  1  0  0  0  0  0  0  0  0  0
   -7.8647   -8.9488    9.0665 C   0  0  0  0  0  0  0  0  0  0  0  0
   -8.0161   -9.6286   10.4630 C   0  0  0  0  0  0  0  0  0  0  0  0
   -8.7100  -10.8222   10.5724 C   0  0  0  0  0  0  0  0  0  0  0  0
   -9.8245  -10.9009   11.4384 C   0  0  0  0  0  0  0  0  0  0  0  0
  -10.0651   -9.7978   12.3205 C   0  0  0  0  0  0  0  0  0  0  0  0
  -11.3909   -9.5262   12.5367 O   0  0  0  0  0  0  0  0  0  0  0  0
   -9.0629   -8.8860   12.5219 C   0  0  0  0  0  0  0  0  0  0  0  0
   -7.9996   -8.8073   11.5967 C   0  0  0  0  0  0  0  0  0  0  0  0
   -8.7472   -8.7734    6.7518 C   0  0  0  0  0  0  0  0  0  0  0  0
   -9.5639   -8.0811    6.1142 O   0  0  0  0  0  0  0  0  0  0  0  0
   -7.4422   -8.9136    6.3642 N   0  0  0  0  0  0  0  0  0  0  0  0
   -7.2322   -9.5514    5.0339 C   0  0  1  0  0  0  0  0  0  0  0  0
   -8.3066   -9.1776    4.0590 C   0  0  0  0  0  0  0  0  0  0  0  0
   -9.6052   -9.5431    4.5584 O   0  0  0  0  0  0  0  0  0  0  0  0
   -5.8940   -9.0451    4.4729 C   0  0  0  0  0  0  0  0  0  0  0  0
   -5.0678   -9.8556    3.9452 O   0  0  0  0  0  0  0  0  0  0  0  0
   -5.6264   -7.7644    4.7387 N   0  0  0  0  0  0  0  0  0  0  0  0
   -4.6109   -7.0102    3.9536 C   0  0  2  0  0  0  0  0  0  0  0  0
   -3.3453   -6.9752    4.8192 C   0  0  0  0  0  0  0  0  0  0  0  0
   -3.3671   -8.6127    4.9133 C   0  0  0  0  0  0  0  0  0  0  0  0
   -4.1866   -8.6936    3.2710 C   0  0  0  0  0  0  0  0  0  0  0  0
   -3.9980  -10.1046    3.0973 N   0  0  0  0  0  0  0  0  0  0  0  0
   -3.3177  -10.7227    2.1009 C   0  0  0  0  0  0  0  0  0  0  0  0
   -2.4358   -9.9964    1.4179 N   0  0  0  0  0  0  0  0  0  0  0  0
   -3.3649  -12.0087    1.9427 N   0  0  0  0  0  4  0  0  0  0  0  0
   -4.9051   -5.6250    3.4253 C   0  0  0  0  0  0  0  0  0  0  0  0
   -4.8382   -5.4512    2.1552 O   0  0  0  0  0  0  0  0  0  0  0  0
   -4.2994   -4.6133    4.2219 N   0  0  0  0  0  0  0  0  0  0  0  0
   -5.0169   -4.3253    5.5626 C   0  0  1  0  0  0  0  0  0  0  0  0
   -3.8865   -3.6015    6.3956 C   0  0  0  0  0  0  0  0  0  0  0  0
   -5.4468   -3.3768    4.4439 C   0  0  0  0  0  0  0  0  0  0  0  0
   -6.5181   -3.9347    3.4807 C   0  0  0  0  0  0  0  0  0  0  0  0
   -6.0150   -4.7540    2.2963 C   0  0  0  0  0  0  0  0  0  0  0  0
   -7.2367   -5.2864    1.5171 C   0  0  0  0  0  0  0  0  0  0  0  0
   -7.4850   -6.5639    1.2286 C   0  0  0  0  0  0  0  0  0  0  0  0
   -6.5758   -7.7467    1.6068 C   0  0  0  0  0  0  0  0  0  0  0  0
   -7.0167   -8.4014    2.9069 C   0  0  0  0  0  0  0  0  0  0  0  0
   -6.1483   -9.6499    3.1869 C   0  0  0  0  0  0  0  0  0  0  0  0
   -6.3878  -10.3272    4.5507 C   0  0  2  0  0  0  0  0  0  0  0  0
   -3.8889   -9.5071    4.2213 C   0  0  0  0  0  0  0  0  0  0  0  0
   -6.8047   -7.6801    4.4751 C   0  0  0  0  0  0  0  0  0  0  0  0
   -7.7651   -8.3869    4.8986 O   0  0  0  0  0  0  0  0  0  0  0  0
   -5.9712   -8.1381    3.6301 N   0  0  0  0  0  0  0  0  0  0  0  0
   -4.5050   -8.1674    4.3481 C   0  0  2  0  0  0  0  0  0  0  0  0
   -4.5350   -6.8856    5.2033 C   0  0  0  0  0  0  0  0  0  0  0  0
   -5.4746   -6.8611    6.3753 C   0  0  0  0  0  0  0  0  0  0  0  0
   -6.4886   -7.8121    6.6344 C   0  0  0  0  0  0  0  0  0  0  0  0
   -6.8950   -8.0402    7.9159 C   0  0  0  0  0  0  0  0  0  0  0  0
   -6.3363   -7.3598    8.9591 C   0  0  0  0  0  0  0  0  0  0  0  0
   -5.5383   -6.2709    8.7326 C   0  0  0  0  0  0  0  0  0  0  0  0
   -5.2619   -5.8526    7.3900 C   0  0  0  0  0  0  0  0  0  0  0  0
   -3.5003   -7.7023    3.1021 C   0  0  0  0  0  0  0  0  0  0  0  0
   -3.3472   -8.5975    2.2831 O   0  0  0  0  0  0  0  0  0  0  0  0
   -3.7843   -6.4414    2.7786 N   0  0  0  0  0  0  0  0  0  0  0  0
   -3.5209   -5.8066    1.5120 C   0  0  2  0  0  0  0  0  0  0  0  0
   -2.4364   -6.5859    0.7210 C   0  0  0  0  0  0  0  0  0  0  0  0
   -2.5413   -6.7238   -0.7648 C   0  0  0  0  0  0  0  0  0  0  0  0
   -2.4816   -5.6263   -1.6486 C   0  0  0  0  0  0  0  0  0  0  0  0
   -3.6101   -5.5843   -2.4348 N   0  0  0  0  0  0  0  0  0  0  0  0
   -4.2938   -6.7620   -2.2566 C   0  0  0  0  0  0  0  0  0  0  0  0
   -5.3424   -7.3005   -3.0807 C   0  0  0  0  0  0  0  0  0  0  0  0
   -5.3793   -8.6993   -3.2115 C   0  0  0  0  0  0  0  0  0  0  0  0
   -4.4643   -9.5288   -2.5072 C   0  0  0  0  0  0  0  0  0  0  0  0
   -3.4971   -8.9798   -1.6442 C   0  0  0  0  0  0  0  0  0  0  0  0
   -3.5043   -7.6280   -1.4318 C   0  0  0  0  0  0  0  0  0  0  0  0
   -3.0093   -4.3746    1.7351 C   0  0  0  0  0  0  0  0  0  0  0  0
   -4.0433   -3.4009    1.9407 N   0  0  0  0  0  0  0  0  0  0  0  0
   -1.8569   -4.1428    1.9843 O   0  0  0  0  0  0  0  0  0  0  0  0
   -5.8104   -9.5705    5.6647 N   0  0  0  0  0  0  0  0  0  0  0  0
   -5.8076  -10.0119    6.9523 C   0  0  0  0  0  0  0  0  0  0  0  0
   -6.1216  -11.1688    7.2506 O   0  0  0  0  0  0  0  0  0  0  0  0
   -5.0992   -9.1023    7.9694 C   0  0  1  0  0  0  0  0  0  0  0  0
   -3.7820   -9.8338    5.3957 C   0  0  0  0  0  0  0  0  0  0  0  0
   -3.2344  -10.4129    6.7078 C   0  0  2  0  0  0  0  0  0  0  0  0
   -1.7647   -9.9764    6.9419 C   0  0  0  0  0  0  0  0  0  0  0  0
   -3.4111  -11.9284    6.7321 C   0  0  0  0  0  0  0  0  0  0  0  0
   -3.8508   -8.5273    7.4903 N   0  0  0  0  0  0  0  0  0  0  0  0
   -2.8032   -9.2693    7.1698 C   0  0  0  0  0  0  0  0  0  0  0  0
   -2.6077  -10.3094    7.7815 O   0  0  0  0  0  0  0  0  0  0  0  0
   -1.5753   -8.5713    6.6290 C   0  0  1  0  0  0  0  0  0  0  0  0
   -0.5742   -9.5980    6.0547 C   0  0  0  0  0  0  0  0  0  0  0  0
   -1.0402  -10.2998    4.7628 C   0  0  2  0  0  0  0  0  0  0  0  0
   -0.8419  -11.7781    4.9125 C   0  0  0  0  0  0  0  0  0  0  0  0
   -0.3664   -9.7846    3.5121 C   0  0  0  0  0  0  0  0  0  0  0  0
   -1.9310   -7.4928    5.6437 N   0  0  0  0  0  0  0  0  0  0  0  0
   -2.5193   -7.8300    4.5177 C   0  0  0  0  0  0  0  0  0  0  0  0
   -2.4948   -9.0086    4.0725 O   0  0  0  0  0  0  0  0  0  0  0  0
   -2.8192   -6.6798    3.5490 C   0  0  2  0  0  0  0  0  0  0  0  0
   -1.1380   -5.9703    3.6206 C   0  0  0  0  0  0  0  0  0  0  0  0
   -1.0176   -5.7672    5.1742 C   0  0  0  0  0  0  0  0  0  0  0  0
   -2.2941   -5.1474    5.7083 C   0  0  0  0  0  0  0  0  0  0  0  0
   -3.3847   -5.8732    5.6531 N   0  0  0  0  0  0  0  0  0  0  0  0
   -2.1700   -4.1655    6.4753 O   0  0  0  0  0  0  0  0  0  0  0  0
   -3.4509   -5.5544    4.2565 N   0  0  0  0  0  0  0  0  0  0  0  0
   -4.5092   -5.6279    4.9349 C   0  0  0  0  0  0  0  0  0  0  0  0
   -5.4752   -6.3046    4.5031 O   0  0  0  0  0  0  0  0  0  0  0  0
  2  3  2  0
  2  1  1  0
  4  2  1  0
  5  4  1  0
 11  5  1  0
  5  6  1  6
 11 12  2  0
 13 11  1  0
  6  7  1  0
  7  8  1  0
  8  9  1  0
  9 10  1  0
 14 13  1  0
 20 14  1  0
 14 15  1  1
 20 21  2  0
 22 20  1  0
 15 16  1  0
 16 17  1  0
 17 18  1  0
 18 19  1  0
 23 22  1  0
 31 23  1  0
 23 24  1  1
 31 32  2  0
 33 31  1  0
 24 25  1  0
 25 26  1  0
 26 27  1  0
 27 28  1  0
 28 30  2  0
 28 29  1  0
 34 33  1  0
 43 34  1  0
 34 35  1  1
 43 44  2  0
 45 43  1  0
 35 36  1  0
 36 37  4  0
 36 42  4  0
 37 38  4  0
 42 41  4  0
 38 39  4  0
 41 39  4  0
 39 40  1  0
 46 45  1  0
 49 46  1  0
 46 47  1  6
 49 50  2  0
 51 49  1  0
 47 48  1  0
 52 51  1  0
 60 52  1  0
 52 53  1  6
 60 61  2  0
 62 60  1  0
 53 54  1  0
 54 55  1  0
 55 56  1  0
 56 57  1  0
 57 59  2  0
 57 58  1  0
129130  2  0
129 63  1  0
128129  1  0
 63 62  1  0
 63 65  1  0
 63 64  1  1
 65 66  1  0
 67 68  1  0
 66 67  1  0
 68 69  2  0
122128  1  0
120122  1  0
122123  1  1
120121  2  0
119120  1  0
123124  1  0
124125  1  0
125127  2  0
125126  1  0
114119  1  0
112114  1  0
114115  1  1
112113  2  0
111112  1  0
115116  1  0
116117  1  6
116118  1  0
106111  1  0
104106  1  0
106107  1  6
104105  2  0
103104  1  0
107108  1  0
108109  1  1
108110  1  0
 75 76  2  0
 73 75  1  0
 75 77  1  0
103 73  1  0
 73 72  1  0
 73 74  1  1
 72 71  1  0
 69 70  1  0
 70 71  1  0
 77 78  1  0
 78 86  1  0
 78 79  1  6
 86 87  2  0
 86 88  1  0
 79 80  1  0
 80 81  4  0
 80 85  4  0
 81 82  4  0
 85 84  4  0
 82 83  4  0
 84 83  4  0
 88 89  1  0
 89100  1  0
 89 90  1  6
100102  2  0
100101  1  0
 90 91  1  0
 91 92  4  0
 91 99  4  0
 92 93  4  0
 99 94  4  0
 99 98  4  0
 93 94  4  0
 94 95  4  0
 98 97  4  0
 95 96  4  0
 97 96  4  0
M  CHG  4  10   1  19   1  30   1  59   1
M  END
$$$$
