
     RDKit          3D

122123  0  0  0  0  0  0  0  0999 V2000
   36.8217   92.7932   85.3233 H   0  0  0  0  0  0  0  0  0  0  0  0
   36.1670   92.0110   85.3200 N   0  0  0  0  0  0  0  0  0  0  0  0
   36.5990   90.7800   85.5870 C   0  0  0  0  0  0  0  0  0  0  0  0
   35.7330   89.7540   85.5940 N   0  0  0  0  0  0  0  0  0  0  0  0
   37.8880   90.5950   85.8550 N   0  0  0  0  0  0  0  0  0  0  0  0
   38.4850   89.3010   86.1480 C   0  0  0  0  0  0  0  0  0  0  0  0
   39.9280   89.4170   86.5920 C   0  0  0  0  0  0  0  0  0  0  0  0
   40.6580   88.0990   86.4210 C   0  0  0  0  0  0  0  0  0  0  0  0
   41.1050   87.7720   84.9800 C   0  0  1  0  0  0  0  0  0  0  0  0
   42.0510   88.8620   84.4060 C   0  0  0  0  0  0  0  0  0  0  0  0
   41.6760   89.4830   83.4290 O   0  0  0  0  0  0  0  0  0  0  0  0
   41.6950   86.4340   84.9380 N   0  0  0  0  0  0  0  0  0  0  0  0
   42.0040   85.8160   83.7990 C   0  0  0  0  0  0  0  0  0  0  0  0
   41.7930   86.2850   82.6820 O   0  0  0  0  0  0  0  0  0  0  0  0
   42.6770   84.4610   83.9520 C   0  0  2  0  0  0  0  0  0  0  0  0
   41.6310   83.4400   84.3820 C   0  0  0  0  0  0  0  0  0  0  0  0
   40.6200   83.1040   83.2860 C   0  0  0  0  0  0  0  0  0  0  0  0
   39.5470   82.1430   83.7580 C   0  0  0  0  0  0  0  0  0  0  0  0
   38.8380   81.5320   82.8080 N   0  0  0  0  0  0  0  0  0  0  0  0
   39.3510   81.9520   84.9620 O   0  0  0  0  0  0  0  0  0  0  0  0
   43.7900   84.5530   84.9030 N   0  0  0  0  0  0  0  0  0  0  0  0
   44.7600   85.4410   84.7140 C   0  0  0  0  0  0  0  0  0  0  0  0
   44.8630   86.0850   83.6770 O   0  0  0  0  0  0  0  0  0  0  0  0
   45.7590   85.6550   85.8380 C   0  0  2  0  0  0  0  0  0  0  0  0
   46.9580   84.7140   85.6910 C   0  0  0  0  0  0  0  0  0  0  0  0
   48.1520   85.1300   86.5050 C   0  0  0  0  0  0  0  0  0  0  0  0
   48.8690   86.2840   86.1760 C   0  0  0  0  0  0  0  0  0  0  0  0
   49.9650   86.6800   86.9320 C   0  0  0  0  0  0  0  0  0  0  0  0
   50.3650   85.9220   88.0250 C   0  0  0  0  0  0  0  0  0  0  0  0
   49.6620   84.7690   88.3590 C   0  0  0  0  0  0  0  0  0  0  0  0
   48.5610   84.3840   87.6010 C   0  0  0  0  0  0  0  0  0  0  0  0
   45.1790   85.4830   87.1740 N   0  0  0  0  0  0  0  0  0  0  0  0
   44.3320   86.3020   87.7030 C   0  0  0  0  0  0  0  0  0  0  0  0
   43.9140   87.3240   87.1170 O   0  0  0  0  0  0  0  0  0  0  0  0
   43.7870   86.0180   89.1140 C   0  0  2  0  0  0  0  0  0  0  0  0
   42.4960   86.8000   89.4130 C   0  0  0  0  0  0  0  0  0  0  0  0
   44.7860   86.2820   90.2540 C   0  0  0  0  0  0  0  0  0  0  0  0
   46.0140   87.1370   89.9740 C   0  0  0  0  0  0  0  0  0  0  0  0
   45.6870   88.6120   90.0910 C   0  0  0  0  0  0  0  0  0  0  0  0
   46.7840   89.4670   89.4920 C   0  0  0  0  0  0  0  0  0  0  0  0
   43.4930   84.5940   89.2360 N   0  0  0  0  0  0  0  0  0  0  0  0
   42.6270   83.8470   88.5290 C   0  0  0  0  0  0  0  0  0  0  0  0
   41.9500   84.3160   87.6400 O   0  0  0  0  0  0  0  0  0  0  0  0
   42.5330   82.3390   88.8420 C   0  0  2  0  0  0  0  0  0  0  0  0
   41.3750   82.0550   89.7980 C   0  0  0  0  0  0  0  0  0  0  0  0
   40.8100   80.6320   89.7200 C   0  0  1  0  0  0  0  0  0  0  0  0
   39.8470   80.4010   90.8700 C   0  0  0  0  0  0  0  0  0  0  0  0
   40.1340   80.3530   88.3760 C   0  0  0  0  0  0  0  0  0  0  0  0
   43.7880   81.7440   89.3630 N   0  0  0  0  0  0  0  0  0  0  0  0
   44.9020   81.7180   88.6390 C   0  0  0  0  0  0  0  0  0  0  0  0
   44.9840   82.2300   87.5170 O   0  0  0  0  0  0  0  0  0  0  0  0
   46.1280   81.0590   89.2870 C   0  0  2  0  0  0  0  0  0  0  0  0
   46.0240   79.5300   89.2350 C   0  0  0  0  0  0  0  0  0  0  0  0
   47.3090   78.7590   89.5850 C   0  0  1  0  0  0  0  0  0  0  0  0
   47.0130   77.2710   89.6830 C   0  0  0  0  0  0  0  0  0  0  0  0
   48.4310   79.0070   88.5820 C   0  0  0  0  0  0  0  0  0  0  0  0
   46.3140   81.5500   90.6560 N   0  0  0  0  0  0  0  0  0  0  0  0
   46.6700   82.8150   90.8980 C   0  0  0  0  0  0  0  0  0  0  0  0
   46.9310   83.6140   90.0000 O   0  0  0  0  0  0  0  0  0  0  0  0
   46.7480   83.2560   92.3700 C   0  0  2  0  0  0  0  0  0  0  0  0
   48.1230   82.9070   92.9350 C   0  0  0  0  0  0  0  0  0  0  0  0
   48.4050   83.5030   94.3150 C   0  0  0  0  0  0  0  0  0  0  0  0
   49.6290   82.9030   95.0080 C   0  0  0  0  0  0  0  0  0  0  0  0
   50.1360   83.6170   96.0040 N   0  0  0  0  0  0  0  0  0  0  0  0
   50.1120   81.8230   94.6550 O   0  0  0  0  0  0  0  0  0  0  0  0
   45.6720   82.6690   93.1930 N   0  0  0  0  0  0  0  0  0  0  0  0
   44.3850   82.9470   92.9700 C   0  0  0  0  0  0  0  0  0  0  0  0
   44.0220   83.7350   92.1250 O   0  0  0  0  0  0  0  0  0  0  0  0
   43.3380   82.2180   93.8120 C   0  0  2  0  0  0  0  0  0  0  0  0
   43.1570   82.8910   95.1900 C   0  0  0  0  0  0  0  0  0  0  0  0
   41.8270   82.5600   95.8840 C   0  0  0  0  0  0  0  0  0  0  0  0
   41.6790   81.0940   96.3030 C   0  0  0  0  0  0  0  0  0  0  0  0
   40.6150   80.4980   96.0200 O   0  0  0  0  0  0  0  0  0  0  0  0
   42.6240   80.5340   96.9050 O   0  0  0  0  0  0  0  0  0  0  0  0
   43.6760   80.8090   93.9590 N   0  0  0  0  0  0  0  0  0  0  0  0
   43.6160   79.9480   92.9540 C   0  0  0  0  0  0  0  0  0  0  0  0
   43.3770   80.2710   91.8030 O   0  0  0  0  0  0  0  0  0  0  0  0
   43.8550   78.4990   93.3220 C   0  0  2  0  0  0  0  0  0  0  0  0
   42.5650   77.9650   93.9960 C   0  0  0  0  0  0  0  0  0  0  0  0
   41.3860   77.7850   93.0270 C   0  0  0  0  0  0  0  0  0  0  0  0
   39.9860   77.9560   93.6290 C   0  0  0  0  0  0  0  0  0  0  0  0
   39.4980   76.7290   94.2480 N   0  0  0  0  0  0  0  0  0  0  0  0
   39.6860   76.3720   95.5290 C   0  0  0  0  0  0  0  0  0  0  0  0
   40.3240   77.1690   96.4010 N   0  0  0  0  0  0  0  0  0  0  0  0
   39.2100   75.2010   95.9570 N   0  0  0  0  0  0  0  0  0  0  0  0
   38.7096   74.5880   95.3134 H   0  0  0  0  0  0  0  0  0  0  0  0
   45.0310   78.3540   94.2030 N   0  0  0  0  0  0  0  0  0  0  0  0
   46.2280   78.9000   93.9550 C   0  0  0  0  0  0  0  0  0  0  0  0
   46.5320   79.4970   92.8950 O   0  0  0  0  0  0  0  0  0  0  0  0
   47.2480   78.7600   95.0810 C   0  0  2  0  0  0  0  0  0  0  0  0
   46.8700   79.6690   96.2590 C   0  0  0  0  0  0  0  0  0  0  0  0
   46.8640   81.0340   95.8680 O   0  0  0  0  0  0  0  0  0  0  0  0
   48.5920   79.0730   94.5830 N   0  0  0  0  0  0  0  0  0  0  0  0
   49.2300   78.2320   93.7730 C   0  0  0  0  0  0  0  0  0  0  0  0
   48.8050   77.1060   93.4910 O   0  0  0  0  0  0  0  0  0  0  0  0
   50.5180   78.7110   93.1560 C   0  0  2  0  0  0  0  0  0  0  0  0
   50.2450   79.0360   91.6860 C   0  0  0  0  0  0  0  0  0  0  0  0
   51.4330   79.5320   90.8970 C   0  0  0  0  0  0  0  0  0  0  0  0
   51.7440   80.8890   90.8250 C   0  0  0  0  0  0  0  0  0  0  0  0
   52.8320   81.3410   90.0790 C   0  0  0  0  0  0  0  0  0  0  0  0
   53.6230   80.4240   89.3960 C   0  0  0  0  0  0  0  0  0  0  0  0
   54.7160   80.8240   88.6630 O   0  0  0  0  0  0  0  0  0  0  0  0
   53.3300   79.0730   89.4650 C   0  0  0  0  0  0  0  0  0  0  0  0
   52.2350   78.6430   90.1950 C   0  0  0  0  0  0  0  0  0  0  0  0
   51.4700   77.6160   93.2730 N   0  0  0  0  0  0  0  0  0  0  0  0
   52.7150   77.7950   93.6830 C   0  0  0  0  0  0  0  0  0  0  0  0
   53.1770   78.8930   93.9450 O   0  0  0  0  0  0  0  0  0  0  0  0
   53.5650   76.5370   93.8030 C   0  0  2  0  0  0  0  0  0  0  0  0
   53.4550   75.9900   95.2320 C   0  0  0  0  0  0  0  0  0  0  0  0
   54.0210   74.5810   95.3980 C   0  0  0  0  0  0  0  0  0  0  0  0
   55.4070   74.5560   96.0290 C   0  0  0  0  0  0  0  0  0  0  0  0
   55.3470   74.4400   97.4900 N   0  0  0  0  0  0  0  0  0  0  0  0
   56.4070   74.3330   98.2970 C   0  0  0  0  0  0  0  0  0  0  0  0
   57.6500   74.3360   97.8090 N   0  0  0  0  0  0  0  0  0  0  0  0
   56.2250   74.2320   99.6120 N   0  0  0  0  0  0  0  0  0  0  0  0
   55.2809   74.2366   99.9980 H   0  0  0  0  0  0  0  0  0  0  0  0
   54.9660   76.8160   93.4470 N   0  0  0  0  0  0  0  0  0  0  0  0
   55.6670   76.0960   92.5690 C   0  0  0  0  0  0  0  0  0  0  0  0
   55.2180   75.1100   91.9800 O   0  0  0  0  0  0  0  0  0  0  0  0
   57.1160   76.5390   92.3350 C   0  0  2  0  0  0  0  0  0  0  0  0
   57.3470   76.8430   90.8400 C   0  0  0  0  0  0  0  0  0  0  0  0
   58.0850   75.5060   92.8340 N   0  0  0  0  0  0  0  0  0  0  0  0
120122  1  0
118120  1  0
120121  1  6
118119  2  0
117118  1  0
108117  1  0
106108  1  0
108109  1  1
106107  2  0
105106  1  0
109110  1  0
110111  1  0
111112  1  0
112113  1  0
113114  1  0
113115  2  0
 96105  1  0
 94 96  1  0
 96 97  1  6
 94 95  2  0
 93 94  1  0
 97 98  1  0
 98 99  2  0
 98104  1  0
 99100  1  0
104103  2  0
100101  2  0
103101  1  0
101102  1  0
 90 93  1  0
 88 90  1  0
 90 91  1  1
 88 89  2  0
 87 88  1  0
 91 92  1  0
 78 87  1  0
 76 78  1  0
 78 79  1  1
 76 77  2  0
 75 76  1  0
 79 80  1  0
 80 81  1  0
 81 82  1  0
 82 83  1  0
 83 85  2  0
 83 84  1  0
 69 75  1  0
 67 69  1  0
 69 70  1  1
 67 68  2  0
 66 67  1  0
 70 71  1  0
 71 72  1  0
 72 74  1  0
 72 73  2  0
 60 66  1  0
 58 60  1  0
 60 61  1  1
 58 59  2  0
 57 58  1  0
 61 62  1  0
 62 63  1  0
 63 65  2  0
 63 64  1  0
 52 57  1  0
 50 52  1  0
 52 53  1  1
 50 51  2  0
 49 50  1  0
 53 54  1  0
 54 55  1  6
 54 56  1  0
 44 49  1  0
 42 44  1  0
 44 45  1  1
 42 43  2  0
 41 42  1  0
 45 46  1  0
 46 47  1  1
 46 48  1  0
 33 34  2  0
 35 33  1  0
 33 32  1  0
 35 41  1  0
 37 35  1  0
 35 36  1  1
 38 37  1  0
 39 40  1  0
 39 38  1  0
 32 24  1  0
 24 22  1  0
 24 25  1  6
 22 23  2  0
 22 21  1  0
 25 26  1  0
 26 27  2  0
 26 31  1  0
 27 28  1  0
 31 30  2  0
 28 29  2  0
 30 29  1  0
 21 15  1  0
 15 13  1  0
 15 16  1  1
 13 14  2  0
 13 12  1  0
 16 17  1  0
 17 18  1  0
 18 20  2  0
 18 19  1  0
 12  9  1  0
  9 10  1  0
  9  8  1  1
 10 11  2  0
  8  7  1  0
  7  6  1  0
  6  5  1  0
  5  3  1  0
  3  2  2  0
  3  4  1  0
115116  1  0
 85 86  1  0
  2  1  1  0
M  CHG  1 122   1
M  END
$$$$
