
     RDKit          3D

 45 45  0  0  0  0  0  0  0  0999 V2000
  -21.5891  -22.6204    3.9282 H   0  0  0  0  0  0  0  0  0  0  0  0
  -22.7734  -22.7944    3.9737 N   0  0  0  0  0  0  0  0  0  0  0  0
  -23.3530  -21.6106    3.9768 C   0  0  0  0  0  0  0  0  0  0  0  0
  -22.5122  -20.5196    4.1254 N   0  0  0  0  0  0  0  0  0  0  0  0
  -24.6434  -21.4292    3.7464 N   0  0  0  0  0  0  0  0  0  0  0  0
  -25.6723  -22.4358    3.9270 C   0  0  0  0  0  0  0  0  0  0  0  0
  -27.0083  -21.6874    4.2604 C   0  0  0  0  0  0  0  0  0  0  0  0
  -27.5822  -20.9299    3.1273 C   0  0  0  0  0  0  0  0  0  0  0  0
  -26.9382  -19.5466    2.9579 C   0  0  1  0  0  0  0  0  0  0  0  0
  -25.9058  -19.2947    4.0260 C   0  0  0  0  0  0  0  0  0  0  0  0
  -25.8443  -18.1249    4.5342 O   0  0  0  0  0  0  0  0  0  0  0  0
  -26.3865  -19.3880    1.6236 N   0  0  0  0  0  0  0  0  0  0  0  0
  -25.1409  -19.7608    1.2877 C   0  0  0  0  0  0  0  0  0  0  0  0
  -24.1399  -19.4435    1.9637 O   0  0  0  0  0  0  0  0  0  0  0  0
  -25.0003  -20.4518   -0.0440 C   0  0  1  0  0  0  0  0  0  0  0  0
  -24.4787  -19.4329   -1.0774 C   0  0  0  0  0  0  0  0  0  0  0  0
  -23.2467  -18.8473   -0.6794 O   0  0  0  0  0  0  0  0  0  0  0  0
  -24.0940  -21.5887    0.0759 N   0  0  0  0  0  0  0  0  0  0  0  0
  -24.1060  -22.4030    1.1101 C   0  0  0  0  0  0  0  0  0  0  0  0
  -23.0622  -22.7867    1.6250 O   0  0  0  0  0  0  0  0  0  0  0  0
  -25.4821  -22.9925    1.4667 C   0  0  1  0  0  0  0  0  0  0  0  0
  -26.3065  -21.9686    2.2256 C   0  0  0  0  0  0  0  0  0  0  0  0
  -25.9718  -20.5595    1.8517 C   0  0  0  0  0  0  0  0  0  0  0  0
  -26.2082  -20.0954    0.5282 C   0  0  0  0  0  0  0  0  0  0  0  0
  -25.9902  -18.7406    0.2075 C   0  0  0  0  0  0  0  0  0  0  0  0
  -25.8566  -17.8177    1.1922 C   0  0  0  0  0  0  0  0  0  0  0  0
  -25.8921  -16.4743    0.9417 O   0  0  0  0  0  0  0  0  0  0  0  0
  -25.6997  -18.2195    2.5207 C   0  0  0  0  0  0  0  0  0  0  0  0
  -25.7402  -19.5823    2.8130 C   0  0  0  0  0  0  0  0  0  0  0  0
  -26.1380  -23.5238    0.2954 N   0  0  0  0  0  0  0  0  0  0  0  0
  -26.5504  -22.7250   -0.6984 C   0  0  0  0  0  0  0  0  0  0  0  0
  -26.2294  -22.8993   -1.8688 O   0  0  0  0  0  0  0  0  0  0  0  0
  -27.3161  -21.4619   -0.2824 C   0  0  2  0  0  0  0  0  0  0  0  0
  -27.7441  -21.4907    1.1509 C   0  0  0  0  0  0  0  0  0  0  0  0
  -27.2813  -20.3199    1.9781 C   0  0  0  0  0  0  0  0  0  0  0  0
  -26.2960  -20.7151    3.0639 C   0  0  0  0  0  0  0  0  0  0  0  0
  -24.9024  -20.7573    2.6647 N   0  0  0  0  0  0  0  0  0  0  0  0
  -23.9777  -19.9315    3.1300 C   0  0  0  0  0  0  0  0  0  0  0  0
  -24.2531  -18.8012    3.7391 N   0  0  0  0  0  0  0  0  0  0  0  0
  -22.6976  -20.1772    2.8323 N   0  0  0  0  0  0  0  0  0  0  0  0
  -22.7283  -21.1252    2.0072 H   0  0  0  0  0  0  0  0  0  0  0  0
  -28.4911  -21.2563   -1.2183 N   0  0  0  0  0  0  0  0  0  0  0  0
  -29.7269  -21.8056   -1.1398 C   0  0  0  0  0  0  0  0  0  0  0  0
  -29.9956  -23.1498   -1.8762 C   0  0  0  0  0  0  0  0  0  0  0  0
  -30.5472  -21.4162   -0.2890 O   0  0  0  0  0  0  0  0  0  0  0  0
 43 45  2  0
 43 44  1  0
 43 42  1  0
 42 33  1  0
 33 31  1  0
 33 34  1  1
 31 32  2  0
 31 30  1  0
 34 35  1  0
 35 36  1  0
 36 37  1  0
 37 38  1  0
 38 39  1  0
 38 40  2  0
 30 21  1  0
 21 19  1  0
 21 22  1  1
 19 20  2  0
 19 18  1  0
 22 23  1  0
 23 24  4  0
 23 29  4  0
 24 25  4  0
 29 28  4  0
 25 26  4  0
 28 26  4  0
 26 27  1  0
 18 15  1  0
 15 13  1  0
 15 16  1  1
 13 14  2  0
 13 12  1  0
 16 17  1  0
 12  9  1  0
  9 10  1  0
  9  8  1  6
 10 11  2  0
  8  7  1  0
  7  6  1  0
  6  5  1  0
  5  3  1  0
  3  4  1  0
  3  2  2  0
 40 41  1  0
  2  1  1  0
M  END
$$$$
