
     RDKit          3D

122123  0  0  0  0  0  0  0  0999 V2000
  -45.2521  -42.3831   63.3045 H   0  0  0  0  0  0  0  0  0  0  0  0
  -45.2185  -42.9307   62.2081 N   0  0  0  0  0  0  0  0  0  0  0  0
  -45.7639  -41.9971   61.3985 C   0  0  0  0  0  0  0  0  0  0  0  0
  -47.0232  -41.6202   61.5061 N   0  0  0  0  0  0  0  0  0  0  0  0
  -45.0630  -41.6558   60.3193 N   0  0  0  0  0  0  0  0  0  0  0  0
  -43.8478  -40.7933   60.3138 C   0  0  0  0  0  0  0  0  0  0  0  0
  -43.1157  -40.7386   61.6262 C   0  0  0  0  0  0  0  0  0  0  0  0
  -41.8023  -40.0083   61.4995 C   0  0  0  0  0  0  0  0  0  0  0  0
  -41.7780  -38.8332   60.4788 C   0  0  1  0  0  0  0  0  0  0  0  0
  -42.2902  -39.3134   59.2011 N   0  0  0  0  0  0  0  0  0  0  0  0
  -42.1270  -40.5614   58.7926 C   0  0  0  0  0  0  0  0  0  0  0  0
  -40.9043  -41.1196   58.0765 C   0  0  0  0  0  0  0  0  0  0  0  0
  -43.1823  -41.2512   58.6976 O   0  0  0  0  0  0  0  0  0  0  0  0
  -42.6970  -37.7205   60.9643 C   0  0  0  0  0  0  0  0  0  0  0  0
  -43.6118  -37.2618   60.2051 O   0  0  0  0  0  0  0  0  0  0  0  0
  -42.7530  -37.5333   62.2801 N   0  0  0  0  0  0  0  0  0  0  0  0
  -43.0313  -38.6630   63.2040 C   0  0  2  0  0  0  0  0  0  0  0  0
  -41.6885  -39.1464   63.8719 C   0  0  0  0  0  0  0  0  0  0  0  0
  -40.6379  -38.9903   63.2390 O   0  0  0  0  0  0  0  0  0  0  0  0
  -41.7710  -39.3695   65.1339 N   0  0  0  0  0  0  0  0  0  0  0  0
  -42.2613  -40.6672   65.6765 C   0  0  1  0  0  0  0  0  0  0  0  0
  -43.6488  -40.8438   65.0971 C   0  0  0  0  0  0  0  0  0  0  0  0
  -44.3364  -39.8384   64.7970 O   0  0  0  0  0  0  0  0  0  0  0  0
  -44.2582  -42.0511   65.3994 N   0  0  0  0  0  0  0  0  0  0  0  0
  -45.6910  -42.1648   65.5050 C   0  0  1  0  0  0  0  0  0  0  0  0
  -46.0631  -43.3496   66.4064 C   0  0  0  0  0  0  0  0  0  0  0  0
  -47.4290  -43.1902   66.9750 C   0  0  0  0  0  0  0  0  0  0  0  0
  -47.9875  -44.2478   67.7673 C   0  0  0  0  0  0  0  0  0  0  0  0
  -48.8020  -44.0309   68.8742 C   0  0  0  0  0  0  0  0  0  0  0  0
  -49.2232  -42.7006   69.1384 C   0  0  0  0  0  0  0  0  0  0  0  0
  -50.4244  -42.5235   69.8006 O   0  0  0  0  0  0  0  0  0  0  0  0
  -48.6399  -41.6435   68.4365 C   0  0  0  0  0  0  0  0  0  0  0  0
  -47.9423  -41.9097   67.2356 C   0  0  0  0  0  0  0  0  0  0  0  0
  -46.2388  -40.9051   66.1686 C   0  0  0  0  0  0  0  0  0  0  0  0
  -47.1751  -40.9733   67.0143 O   0  0  0  0  0  0  0  0  0  0  0  0
  -45.4219  -39.8357   66.0247 N   0  0  0  0  0  0  0  0  0  0  0  0
  -44.3036  -39.6047   66.9472 C   0  0  2  0  0  0  0  0  0  0  0  0
  -44.3417  -38.1634   67.4848 C   0  0  0  0  0  0  0  0  0  0  0  0
  -45.7153  -37.7399   67.6668 O   0  0  0  0  0  0  0  0  0  0  0  0
  -43.0174  -39.8186   66.2076 C   0  0  0  0  0  0  0  0  0  0  0  0
  -41.9413  -39.8544   66.8012 O   0  0  0  0  0  0  0  0  0  0  0  0
  -43.0576  -39.5792   64.8721 N   0  0  0  0  0  0  0  0  0  0  0  0
  -43.9808  -38.6478   64.3005 C   0  0  1  0  0  0  0  0  0  0  0  0
  -45.1656  -39.4166   63.6853 C   0  0  0  0  0  0  0  0  0  0  0  0
  -45.8163  -40.4450   64.6033 C   0  0  0  0  0  0  0  0  0  0  0  0
  -46.8989  -41.1543   63.8532 C   0  0  0  0  0  0  0  0  0  0  0  0
  -48.0564  -40.2961   63.8589 N   0  0  0  0  0  0  0  0  0  0  0  0
  -48.1148  -39.1581   63.1228 C   0  0  0  0  0  0  0  0  0  0  0  0
  -47.1019  -38.2671   63.1437 N   0  0  0  0  0  0  0  0  0  0  0  0
  -49.0595  -39.0117   62.2381 N   0  0  0  0  0  0  0  0  0  0  0  0
  -48.5419  -38.9872   61.1580 H   0  0  0  0  0  0  0  0  0  0  0  0
  -44.4721  -37.5619   65.3379 C   0  0  0  0  0  0  0  0  0  0  0  0
  -44.2517  -36.3843   65.1177 O   0  0  0  0  0  0  0  0  0  0  0  0
  -45.4277  -37.8889   66.2672 N   0  0  0  0  0  0  0  0  0  0  0  0
  -46.8509  -37.6634   66.1419 C   0  0  2  0  0  0  0  0  0  0  0  0
  -47.2762  -38.1943   64.7740 C   0  0  0  0  0  0  0  0  0  0  0  0
  -47.0101  -36.1542   66.1749 C   0  0  0  0  0  0  0  0  0  0  0  0
  -46.5086  -35.4671   67.4518 C   0  0  0  0  0  0  0  0  0  0  0  0
  -47.5501  -35.3053   68.5570 C   0  0  0  0  0  0  0  0  0  0  0  0
  -46.9234  -34.9142   69.8771 C   0  0  0  0  0  0  0  0  0  0  0  0
  -46.6490  -35.3505   71.1209 C   0  0  0  0  0  0  0  0  0  0  0  0
  -47.1657  -36.7433   71.5446 C   0  0  0  0  0  0  0  0  0  0  0  0
  -46.1133  -37.8224   71.3027 C   0  0  0  0  0  0  0  0  0  0  0  0
  -46.6500  -39.1687   71.7526 C   0  0  0  0  0  0  0  0  0  0  0  0
  -45.7109  -40.3682   71.5337 C   0  0  2  0  0  0  0  0  0  0  0  0
  -46.0086  -41.5204   72.5227 C   0  0  0  0  0  0  0  0  0  0  0  0
  -44.2880  -39.8234   71.8084 C   0  0  0  0  0  0  0  0  0  0  0  0
  -44.1638  -38.6057   72.0854 O   0  0  0  0  0  0  0  0  0  0  0  0
  -43.3776  -40.3973   71.1744 N   0  0  0  0  0  0  0  0  0  0  0  0
  -43.6685  -41.5698   70.3054 C   0  0  2  0  0  0  0  0  0  0  0  0
  -43.8061  -42.7654   71.2191 C   0  0  0  0  0  0  0  0  0  0  0  0
  -42.5177  -43.5580   71.5018 C   0  0  2  0  0  0  0  0  0  0  0  0
  -41.3174  -42.6321   71.6977 C   0  0  0  0  0  0  0  0  0  0  0  0
  -42.1785  -44.6407   70.4725 C   0  0  0  0  0  0  0  0  0  0  0  0
  -42.7023  -41.8626   69.1300 C   0  0  0  0  0  0  0  0  0  0  0  0
  -41.6380  -42.4457   69.3932 O   0  0  0  0  0  0  0  0  0  0  0  0
  -43.2032  -41.9406   67.9052 N   0  0  0  0  0  0  0  0  0  0  0  0
  -42.4676  -42.4676   66.8059 C   0  0  2  0  0  0  0  0  0  0  0  0
  -42.8186  -41.7892   65.5135 C   0  0  0  0  0  0  0  0  0  0  0  0
  -42.1774  -42.3005   64.2939 C   0  0  0  0  0  0  0  0  0  0  0  0
  -43.1276  -42.4800   63.1410 C   0  0  0  0  0  0  0  0  0  0  0  0
  -42.5024  -41.9340   61.8100 C   0  0  0  0  0  0  0  0  0  0  0  0
  -41.4272  -42.8322   61.2915 N   0  0  0  0  0  0  0  0  0  0  0  0
  -42.6670  -44.0133   66.7644 C   0  0  0  0  0  0  0  0  0  0  0  0
  -43.9610  -44.5954   66.4969 N   0  0  0  0  0  0  0  0  0  0  0  0
  -41.6700  -44.7293   66.6177 O   0  0  0  0  0  0  0  0  0  0  0  0
  -45.7809  -40.8005   70.1505 N   0  0  0  0  0  0  0  0  0  0  0  0
  -45.2238  -41.9449   69.6456 C   0  0  0  0  0  0  0  0  0  0  0  0
  -44.8221  -42.8344   70.4144 O   0  0  0  0  0  0  0  0  0  0  0  0
  -45.4224  -42.2998   68.1692 C   0  0  2  0  0  0  0  0  0  0  0  0
  -44.4400  -41.3949   67.3211 C   0  0  0  0  0  0  0  0  0  0  0  0
  -43.9395  -40.1942   68.1253 C   0  0  1  0  0  0  0  0  0  0  0  0
  -43.0850  -40.6456   69.3257 C   0  0  0  0  0  0  0  0  0  0  0  0
  -43.1841  -39.2231   67.2930 C   0  0  0  0  0  0  0  0  0  0  0  0
  -46.7676  -42.0467   67.6783 N   0  0  0  0  0  0  0  0  0  0  0  0
  -47.7917  -42.7536   68.1188 C   0  0  0  0  0  0  0  0  0  0  0  0
  -47.6902  -43.4142   69.2111 O   0  0  0  0  0  0  0  0  0  0  0  0
  -49.1591  -42.4372   67.6046 C   0  0  2  0  0  0  0  0  0  0  0  0
  -48.9635  -42.8160   65.9426 C   0  0  0  0  0  0  0  0  0  0  0  0
  -48.6909  -41.4528   65.3087 C   0  0  1  0  0  0  0  0  0  0  0  0
  -47.1916  -41.1861   65.1461 C   0  0  0  0  0  0  0  0  0  0  0  0
  -49.4579  -41.2324   64.0430 C   0  0  0  0  0  0  0  0  0  0  0  0
  -49.4013  -40.9924   67.5531 N   0  0  0  0  0  0  0  0  0  0  0  0
  -49.4446  -40.2436   68.6298 C   0  0  0  0  0  0  0  0  0  0  0  0
  -49.4591  -40.6613   69.7683 O   0  0  0  0  0  0  0  0  0  0  0  0
  -49.6873  -38.7502   68.4107 C   0  0  2  0  0  0  0  0  0  0  0  0
  -51.1765  -38.5366   68.0543 C   0  0  0  0  0  0  0  0  0  0  0  0
  -51.4331  -38.1091   66.6320 C   0  0  0  0  0  0  0  0  0  0  0  0
  -50.1850  -37.4544   66.0162 C   0  0  0  0  0  0  0  0  0  0  0  0
  -50.0902  -36.1731   66.0880 N   0  0  0  0  0  0  0  0  0  0  0  0
  -49.2110  -38.2088   65.7133 O   0  0  0  0  0  0  0  0  0  0  0  0
  -48.8480  -38.2167   67.3294 N   0  0  0  0  0  0  0  0  0  0  0  0
  -47.5948  -38.2981   67.3176 C   0  0  0  0  0  0  0  0  0  0  0  0
  -46.9395  -38.7041   68.2877 O   0  0  0  0  0  0  0  0  0  0  0  0
  -41.3071  -41.8368   65.2136 C   0  0  1  0  0  0  0  0  0  0  0  0
  -39.9516  -41.3479   64.7929 C   0  0  0  0  0  0  0  0  0  0  0  0
  -41.0515  -42.7880   66.3878 C   0  0  0  0  0  0  0  0  0  0  0  0
  -41.2365  -42.2284   67.7838 C   0  0  0  0  0  0  0  0  0  0  0  0
  -43.6656  -39.8700   62.4545 C   0  0  1  0  0  0  0  0  0  0  0  0
  -43.3190  -41.1544   63.1712 C   0  0  0  0  0  0  0  0  0  0  0  0
  -45.1702  -39.6623   62.3768 C   0  0  0  0  0  0  0  0  0  0  0  0
  -45.9575  -40.8329   63.0994 C   0  0  0  0  0  0  0  0  0  0  0  0
 11 13  2  0
 11 12  1  0
 10 11  1  0
  9 10  1  0
 14  9  1  0
  9  8  1  6
 14 15  2  0
 16 14  1  0
  8  7  1  0
  7  6  1  0
  6  5  1  0
  5  3  1  0
  3  2  2  0
  3  4  1  0
 17 16  1  6
 18 17  1  0
 17119  1  0
 18 19  2  0
 20 18  1  0
119121  1  0
119120  1  1
121122  1  0
 21 20  1  1
 22 21  1  0
 21115  1  0
 22 23  2  0
 24 22  1  0
115117  1  0
115116  1  1
117118  1  0
 25 24  1  0
 34 25  1  0
 25 26  1  1
 34 35  2  0
 36 34  1  0
 26 27  1  0
 27 28  4  0
 27 33  4  0
 28 29  4  0
 33 32  4  0
 29 30  4  0
 32 30  4  0
 30 31  1  0
 37 36  1  0
 40 37  1  0
 37 38  1  1
 40 41  2  0
 42 40  1  0
 38 39  1  0
 43 42  1  0
 52 43  1  0
 43 44  1  1
 52 53  2  0
 54 52  1  0
 44 45  1  0
 45 46  1  0
 46 47  1  0
 47 48  1  0
 48 50  2  0
 48 49  1  0
113114  2  0
113 55  1  0
112113  1  0
 55 54  1  0
 55 57  1  0
 55 56  1  1
 57 58  1  0
 59 60  1  0
 58 59  1  0
 60 61  2  0
106112  1  0
104106  1  0
106107  1  6
104105  2  0
103104  1  0
107108  1  0
108109  1  0
109111  2  0
109110  1  0
 98103  1  0
 96 98  1  0
 98 99  1  6
 96 97  2  0
 95 96  1  0
 99100  1  0
100101  1  6
100102  1  0
 90 95  1  0
 88 90  1  0
 90 91  1  6
 88 89  2  0
 87 88  1  0
 91 92  1  0
 92 93  1  1
 92 94  1  0
 67 68  2  0
 65 67  1  0
 67 69  1  0
 87 65  1  0
 65 64  1  0
 65 66  1  6
 64 63  1  0
 61 62  1  0
 62 63  1  0
 69 70  1  0
 70 75  1  0
 70 71  1  6
 75 76  2  0
 75 77  1  0
 71 72  1  0
 72 73  1  1
 72 74  1  0
 77 78  1  0
 78 84  1  0
 78 79  1  1
 84 86  2  0
 84 85  1  0
 79 80  1  0
 80 81  1  0
 81 82  1  0
 82 83  1  0
  2  1  1  0
 50 51  1  0
M  CHG  1  83   1
M  END
$$$$
