
     RDKit          3D

122123  0  0  0  0  0  0  0  0999 V2000
  -60.7638  -57.4901   89.0226 H   0  0  0  0  0  0  0  0  0  0  0  0
  -60.5320  -56.5010   88.9310 N   0  0  0  0  0  0  0  0  0  0  0  0
  -60.2850  -55.7690   90.0210 C   0  0  0  0  0  0  0  0  0  0  0  0
  -59.9920  -54.4700   89.8960 N   0  0  0  0  0  0  0  0  0  0  0  0
  -60.3460  -56.3480   91.2200 N   0  0  0  0  0  0  0  0  0  0  0  0
  -60.0770  -55.6880   92.4990 C   0  0  0  0  0  0  0  0  0  0  0  0
  -61.2260  -54.8580   93.0560 C   0  0  0  0  0  0  0  0  0  0  0  0
  -60.8160  -54.0990   94.3190 C   0  0  0  0  0  0  0  0  0  0  0  0
  -60.2160  -55.0010   95.4110 C   0  0  2  0  0  0  0  0  0  0  0  0
  -61.1910  -55.9670   95.8610 N   0  0  0  0  0  0  0  0  0  0  0  0
  -60.9000  -57.0960   96.5250 C   0  0  0  0  0  0  0  0  0  0  0  0
  -59.4840  -57.4870   96.9330 C   0  0  0  0  0  0  0  0  0  0  0  0
  -61.8200  -57.8470   96.8160 O   0  0  0  0  0  0  0  0  0  0  0  0
  -59.6870  -54.1800   96.5710 C   0  0  0  0  0  0  0  0  0  0  0  0
  -60.3770  -53.9820   97.5580 O   0  0  0  0  0  0  0  0  0  0  0  0
  -58.4450  -53.7220   96.4420 N   0  0  0  0  0  0  0  0  0  0  0  0
  -57.8080  -52.9140   97.4730 C   0  0  2  0  0  0  0  0  0  0  0  0
  -58.0430  -51.4490   97.1180 C   0  0  0  0  0  0  0  0  0  0  0  0
  -57.5600  -50.9750   96.0880 O   0  0  0  0  0  0  0  0  0  0  0  0
  -58.8190  -50.7640   97.9520 N   0  0  0  0  0  0  0  0  0  0  0  0
  -59.1960  -49.3770   97.7280 C   0  0  2  0  0  0  0  0  0  0  0  0
  -58.6610  -48.5710   98.9030 C   0  0  0  0  0  0  0  0  0  0  0  0
  -58.6820  -49.0500  100.0380 O   0  0  0  0  0  0  0  0  0  0  0  0
  -58.1690  -47.3620   98.6240 N   0  0  0  0  0  0  0  0  0  0  0  0
  -57.8130  -46.3970   99.6580 C   0  0  1  0  0  0  0  0  0  0  0  0
  -56.3130  -46.1240   99.7080 C   0  0  0  0  0  0  0  0  0  0  0  0
  -55.5030  -47.3400  100.0480 C   0  0  0  0  0  0  0  0  0  0  0  0
  -55.3600  -47.7600  101.3700 C   0  0  0  0  0  0  0  0  0  0  0  0
  -54.6300  -48.9050  101.6850 C   0  0  0  0  0  0  0  0  0  0  0  0
  -54.0460  -49.6500  100.6800 C   0  0  0  0  0  0  0  0  0  0  0  0
  -53.3150  -50.7910  101.0040 O   0  0  0  0  0  0  0  0  0  0  0  0
  -54.1830  -49.2510   99.3560 C   0  0  0  0  0  0  0  0  0  0  0  0
  -54.9180  -48.1070   99.0480 C   0  0  0  0  0  0  0  0  0  0  0  0
  -58.5220  -45.0880   99.3800 C   0  0  0  0  0  0  0  0  0  0  0  0
  -58.4600  -44.5730   98.2510 O   0  0  0  0  0  0  0  0  0  0  0  0
  -59.1440  -44.5400  100.4170 N   0  0  0  0  0  0  0  0  0  0  0  0
  -59.6610  -43.1840  100.3540 C   0  0  1  0  0  0  0  0  0  0  0  0
  -60.5070  -42.8820  101.5950 C   0  0  0  0  0  0  0  0  0  0  0  0
  -59.6930  -42.8830  102.7630 O   0  0  0  0  0  0  0  0  0  0  0  0
  -58.5010  -42.2100  100.2940 C   0  0  0  0  0  0  0  0  0  0  0  0
  -57.3680  -42.5470  100.6570 O   0  0  0  0  0  0  0  0  0  0  0  0
  -58.8000  -40.9860   99.8670 N   0  0  0  0  0  0  0  0  0  0  0  0
  -57.8700  -39.8890   99.9440 C   0  0  1  0  0  0  0  0  0  0  0  0
  -58.5960  -38.6090   99.5090 C   0  0  0  0  0  0  0  0  0  0  0  0
  -57.7290  -37.3820   99.5420 C   0  0  0  0  0  0  0  0  0  0  0  0
  -58.4560  -36.1900   98.9560 C   0  0  0  0  0  0  0  0  0  0  0  0
  -57.5250  -35.0910   98.8950 N   0  0  0  0  0  0  0  0  0  0  0  0
  -57.2140  -34.2790   99.9030 C   0  0  0  0  0  0  0  0  0  0  0  0
  -57.7860  -34.4010  101.1080 N   0  0  0  0  0  0  0  0  0  0  0  0
  -56.3080  -33.3190   99.6980 N   0  0  0  0  0  0  0  0  0  0  0  0
  -55.8691  -33.2190   98.7827 H   0  0  0  0  0  0  0  0  0  0  0  0
  -57.2160  -39.7270  101.3520 C   0  0  0  0  0  0  0  0  0  0  0  0
  -55.9900  -39.6160  101.4380 O   0  0  0  0  0  0  0  0  0  0  0  0
  -58.0100  -39.7100  102.4530 N   0  0  0  0  0  0  0  0  0  0  0  0
  -57.5540  -39.5710  103.8320 C   0  0  1  0  0  0  0  0  0  0  0  0
  -57.0040  -38.1460  103.9950 C   0  0  0  0  0  0  0  0  0  0  0  0
  -58.7990  -39.7480  104.7060 C   0  0  0  0  0  0  0  0  0  0  0  0
  -58.5230  -39.7140  106.2180 C   0  0  0  0  0  0  0  0  0  0  0  0
  -58.2630  -41.0810  106.8430 C   0  0  0  0  0  0  0  0  0  0  0  0
  -57.7170  -40.9620  108.2490 C   0  0  0  0  0  0  0  0  0  0  0  0
  -56.6270  -41.1340  109.0220 C   0  0  0  0  0  0  0  0  0  0  0  0
  -55.3650  -41.7510  108.3890 C   0  0  0  0  0  0  0  0  0  0  0  0
  -54.4230  -40.6640  107.8690 C   0  0  0  0  0  0  0  0  0  0  0  0
  -53.1810  -41.3030  107.2350 C   0  0  0  0  0  0  0  0  0  0  0  0
  -52.1480  -40.3480  106.6410 C   0  0  1  0  0  0  0  0  0  0  0  0
  -51.8850  -39.1360  107.5610 C   0  0  0  0  0  0  0  0  0  0  0  0
  -50.8860  -41.1790  106.4800 C   0  0  0  0  0  0  0  0  0  0  0  0
  -49.9850  -41.0680  107.3410 O   0  0  0  0  0  0  0  0  0  0  0  0
  -50.7920  -41.9660  105.4820 N   0  0  0  0  0  0  0  0  0  0  0  0
  -49.6150  -42.8280  105.2950 C   0  0  1  0  0  0  0  0  0  0  0  0
  -50.0540  -44.0220  104.4340 C   0  0  0  0  0  0  0  0  0  0  0  0
  -50.9920  -45.0220  105.1240 C   0  0  1  0  0  0  0  0  0  0  0  0
  -51.6170  -45.9640  104.1110 C   0  0  0  0  0  0  0  0  0  0  0  0
  -50.2850  -45.8170  106.2170 C   0  0  0  0  0  0  0  0  0  0  0  0
  -48.3830  -42.1700  104.7040 C   0  0  0  0  0  0  0  0  0  0  0  0
  -47.3580  -42.8190  104.5860 O   0  0  0  0  0  0  0  0  0  0  0  0
  -48.4630  -40.8930  104.3470 N   0  0  0  0  0  0  0  0  0  0  0  0
  -47.2850  -40.1340  104.0150 C   0  0  1  0  0  0  0  0  0  0  0  0
  -47.6830  -38.7830  103.4240 C   0  0  0  0  0  0  0  0  0  0  0  0
  -46.5060  -37.9710  102.9040 C   0  0  0  0  0  0  0  0  0  0  0  0
  -46.9550  -36.6930  102.2040 C   0  0  0  0  0  0  0  0  0  0  0  0
  -45.7640  -35.9060  101.6680 C   0  0  0  0  0  0  0  0  0  0  0  0
  -45.0160  -35.1930  102.7480 N   0  0  0  0  0  0  0  0  0  0  0  0
  -46.4260  -39.9730  105.2950 C   0  0  0  0  0  0  0  0  0  0  0  0
  -47.0310  -40.0530  106.5800 N   0  0  0  0  0  0  0  0  0  0  0  0
  -45.2370  -39.8290  105.2200 O   0  0  0  0  0  0  0  0  0  0  0  0
  -52.5930  -39.9270  105.3110 N   0  0  0  0  0  0  0  0  0  0  0  0
  -51.8390  -39.2180  104.4220 C   0  0  0  0  0  0  0  0  0  0  0  0
  -50.7030  -38.8160  104.6870 O   0  0  0  0  0  0  0  0  0  0  0  0
  -52.3940  -38.8970  103.0260 C   0  0  2  0  0  0  0  0  0  0  0  0
  -53.2370  -37.6190  103.0630 C   0  0  0  0  0  0  0  0  0  0  0  0
  -53.6250  -37.0430  101.7010 C   0  0  1  0  0  0  0  0  0  0  0  0
  -54.5090  -35.8230  101.8700 C   0  0  0  0  0  0  0  0  0  0  0  0
  -52.4080  -36.7070  100.8670 C   0  0  0  0  0  0  0  0  0  0  0  0
  -53.1540  -39.9940  102.4220 N   0  0  0  0  0  0  0  0  0  0  0  0
  -52.5270  -41.1190  102.0670 C   0  0  0  0  0  0  0  0  0  0  0  0
  -51.3340  -41.3020  102.2870 O   0  0  0  0  0  0  0  0  0  0  0  0
  -53.3560  -42.2230  101.4690 C   0  0  2  0  0  0  0  0  0  0  0  0
  -53.6000  -41.9720   99.9840 C   0  0  0  0  0  0  0  0  0  0  0  0
  -54.2180  -43.1760   99.2730 C   0  0  1  0  0  0  0  0  0  0  0  0
  -54.6890  -42.7870   97.8760 C   0  0  0  0  0  0  0  0  0  0  0  0
  -53.2350  -44.3520   99.2170 C   0  0  0  0  0  0  0  0  0  0  0  0
  -54.6110  -42.4310  102.1920 N   0  0  0  0  0  0  0  0  0  0  0  0
  -54.6110  -42.8520  103.4580 C   0  0  0  0  0  0  0  0  0  0  0  0
  -53.5810  -43.1180  104.0990 O   0  0  0  0  0  0  0  0  0  0  0  0
  -55.9800  -43.0150  104.1050 C   0  0  2  0  0  0  0  0  0  0  0  0
  -56.6330  -44.2760  103.5500 C   0  0  0  0  0  0  0  0  0  0  0  0
  -57.6520  -44.9340  104.4580 C   0  0  0  0  0  0  0  0  0  0  0  0
  -58.2230  -46.1930  103.8180 C   0  0  0  0  0  0  0  0  0  0  0  0
  -57.8410  -47.3460  104.3490 N   0  0  0  0  0  0  0  0  0  0  0  0
  -58.9800  -46.1240  102.8340 O   0  0  0  0  0  0  0  0  0  0  0  0
  -56.8620  -41.8650  103.8390 N   0  0  0  0  0  0  0  0  0  0  0  0
  -56.5440  -40.6670  104.1440 C   0  0  0  0  0  0  0  0  0  0  0  0
  -55.4610  -40.3720  104.6820 O   0  0  0  0  0  0  0  0  0  0  0  0
  -60.7410  -49.2340   97.6060 C   0  0  1  0  0  0  0  0  0  0  0  0
  -61.1950  -47.7940   97.8170 C   0  0  0  0  0  0  0  0  0  0  0  0
  -61.2340  -49.6190   96.2080 C   0  0  0  0  0  0  0  0  0  0  0  0
  -60.9020  -50.9970   95.7360 C   0  0  0  0  0  0  0  0  0  0  0  0
  -56.2990  -53.1940   97.5920 C   0  0  1  0  0  0  0  0  0  0  0  0
  -55.7090  -52.3830   98.7510 C   0  0  0  0  0  0  0  0  0  0  0  0
  -56.0420  -54.6950   97.7970 C   0  0  0  0  0  0  0  0  0  0  0  0
  -54.5910  -55.0900   97.6560 C   0  0  0  0  0  0  0  0  0  0  0  0
 11 13  2  0
 11 12  1  0
 10 11  1  0
  9 10  1  0
 14  9  1  0
  9  8  1  6
 14 15  2  0
 16 14  1  0
  8  7  1  0
  7  6  1  0
  6  5  1  0
  5  3  1  0
  3  2  2  0
  3  4  1  0
 17 16  1  6
 18 17  1  0
 17119  1  0
 18 19  2  0
 20 18  1  0
119121  1  0
119120  1  1
121122  1  0
 21 20  1  1
 22 21  1  0
 21115  1  0
 22 23  2  0
 24 22  1  0
115117  1  0
115116  1  6
117118  1  0
 25 24  1  0
 34 25  1  0
 25 26  1  6
 34 35  2  0
 36 34  1  0
 26 27  1  0
 27 28  2  0
 27 33  1  0
 28 29  1  0
 33 32  2  0
 29 30  2  0
 32 30  1  0
 30 31  1  0
 37 36  1  0
 40 37  1  0
 37 38  1  1
 40 41  2  0
 42 40  1  0
 38 39  1  0
 43 42  1  0
 52 43  1  0
 43 44  1  1
 52 53  2  0
 54 52  1  0
 44 45  1  0
 45 46  1  0
 46 47  1  0
 47 48  1  0
 48 50  2  0
 48 49  1  0
113114  2  0
113 55  1  0
112113  1  0
 55 54  1  0
 55 57  1  0
 55 56  1  6
 57 58  1  0
 59 60  1  0
 58 59  1  0
 60 61  2  0
106112  1  0
104106  1  0
106107  1  6
104105  2  0
103104  1  0
107108  1  0
108109  1  0
109111  2  0
109110  1  0
 98103  1  0
 96 98  1  0
 98 99  1  6
 96 97  2  0
 95 96  1  0
 99100  1  0
100101  1  6
100102  1  0
 90 95  1  0
 88 90  1  0
 90 91  1  1
 88 89  2  0
 87 88  1  0
 91 92  1  0
 92 93  1  1
 92 94  1  0
 67 68  2  0
 65 67  1  0
 67 69  1  0
 87 65  1  0
 65 64  1  0
 65 66  1  1
 64 63  1  0
 61 62  1  0
 62 63  1  0
 69 70  1  0
 70 75  1  0
 70 71  1  6
 75 76  2  0
 75 77  1  0
 71 72  1  0
 72 73  1  6
 72 74  1  0
 77 78  1  0
 78 84  1  0
 78 79  1  1
 84 86  2  0
 84 85  1  0
 79 80  1  0
 80 81  1  0
 81 82  1  0
 82 83  1  0
  2  1  1  0
 50 51  1  0
M  CHG  1  83   1
M  END
$$$$
