
     RDKit          3D

 30 33  0  0  0  0  0  0  0  0999 V2000
   55.2960    2.0420   23.0712 O   0  0  0  0  0  0  0  0  0  0  0  0
   55.5269    1.8814   21.5321 P   0  0  2  0  0  0  0  0  0  0  0  0
   55.1603    3.1836   20.8778 O   0  0  0  0  0  0  0  0  0  0  0  0
   54.6144    0.8158   21.0259 O   0  0  0  0  0  0  0  0  0  0  0  0
   57.3024    1.4366   21.1821 C   0  0  2  0  0  0  0  0  0  0  0  0
   57.9873    1.2719   22.3821 O   0  0  0  0  0  0  0  0  0  0  0  0
   57.9485    2.6034   20.4213 C   0  0  0  0  0  0  0  0  0  0  0  0
   59.1178    2.2632   19.4912 C   0  0  0  0  0  0  0  0  0  0  0  0
   60.2258    1.5571   19.9648 C   0  0  0  0  0  0  0  0  0  0  0  0
   60.9713    0.7490   19.1308 C   0  0  0  0  0  0  0  0  0  0  0  0
   60.7081    0.7033   17.7934 C   0  0  0  0  0  0  0  0  0  0  0  0
   59.8382    1.6744   17.2597 C   0  0  0  0  0  0  0  0  0  0  0  0
   60.2176    2.4184   16.1433 C   0  0  0  0  0  0  0  0  0  0  0  0
   61.1335    3.4402   16.3874 C   0  0  0  0  0  0  0  0  0  0  0  0
   60.9055    4.6974   15.9102 C   0  0  0  0  0  0  0  0  0  0  0  0
   59.8406    4.9732   15.0854 C   0  0  0  0  0  0  0  0  0  0  0  0
   59.1361    3.8981   14.5670 C   0  0  0  0  0  0  0  0  0  0  0  0
   59.3284    2.6174   15.0211 C   0  0  0  0  0  0  0  0  0  0  0  0
   58.8604    1.7365   14.0497 O   0  0  0  0  0  0  0  0  0  0  0  0
   58.4851    2.4927   12.9404 C   0  0  0  0  0  0  0  0  0  0  0  0
   58.4846    2.1742   11.5910 C   0  0  0  0  0  0  0  0  0  0  0  0
   58.2748    3.1432   10.6240 C   0  0  0  0  0  0  0  0  0  0  0  0
   58.0865    4.4975   11.0482 C   0  0  0  0  0  0  0  0  0  0  0  0
   58.0345    4.7840   12.4186 C   0  0  0  0  0  0  0  0  0  0  0  0
   58.3988    3.7808   13.3620 C   0  0  0  0  0  0  0  0  0  0  0  0
   58.9318    2.2491   18.1236 C   0  0  0  0  0  0  0  0  0  0  0  0
   57.2599   -0.1074   20.1987 P   0  0  1  0  0  0  0  0  0  0  0  0
   57.0045   -1.3231   21.0935 O   0  0  0  0  0  0  0  0  0  0  0  0
   56.2307   -0.1052   19.0921 O   0  0  0  0  0  0  0  0  0  0  0  0
   58.6747   -0.3259   19.5837 O   0  0  0  0  0  0  0  0  0  0  0  0
 25 24  4  0
 25 20  4  0
 25 17  4  0
 24 23  4  0
 23 22  4  0
 22 21  4  0
 21 20  4  0
 20 19  4  0
 19 18  4  0
 18 17  4  0
 18 13  4  0
 17 16  4  0
 16 15  4  0
 15 14  4  0
 14 13  4  0
 13 12  1  0
 12 26  4  0
 12 11  4  0
 26  8  4  0
 11 10  4  0
 10  9  4  0
  9  8  4  0
  8  7  1  0
  7  5  1  0
  5  2  1  0
  5 27  1  0
  5  6  1  1
  2  3  1  6
  2  1  2  0
  2  4  1  0
 27 28  2  0
 27 29  1  6
 27 30  1  0
M  END
$$$$
