
     RDKit          3D

135137  0  0  0  0  0  0  0  0999 V2000
  -13.3247  -19.2960  -29.8224 H   0  0  0  0  0  0  0  0  0  0  0  0
  -14.4208  -18.9858  -29.4065 N   0  0  0  0  0  0  0  0  0  0  0  0
  -14.5224  -17.6914  -29.5199 C   0  0  0  0  0  0  0  0  0  0  0  0
  -13.9392  -17.0882  -30.5854 N   0  0  0  0  0  0  0  0  0  0  0  0
  -14.8497  -16.9349  -28.4350 N   0  0  0  0  0  0  0  0  0  0  0  0
  -13.8268  -16.3366  -27.5448 C   0  0  0  0  0  0  0  0  0  0  0  0
  -12.6970  -17.3181  -27.4403 C   0  0  0  0  0  0  0  0  0  0  0  0
  -13.2250  -18.7813  -27.3814 C   0  0  0  0  0  0  0  0  0  0  0  0
  -14.7551  -18.7371  -27.6218 C   0  0  1  0  0  0  0  0  0  0  0  0
  -15.3586  -17.5011  -27.4642 N   0  0  0  0  0  0  0  0  0  0  0  0
  -15.5736  -16.9284  -26.3136 C   0  0  0  0  0  0  0  0  0  0  0  0
  -15.8432  -15.7194  -26.1915 O   0  0  0  0  0  0  0  0  0  0  0  0
  -15.0162  -17.6567  -25.0327 C   0  0  2  0  0  0  0  0  0  0  0  0
  -13.5924  -17.1355  -24.8291 C   0  0  0  0  0  0  0  0  0  0  0  0
  -13.1161  -17.1418  -23.4422 C   0  0  0  0  0  0  0  0  0  0  0  0
  -12.6315  -18.3800  -22.8499 C   0  0  0  0  0  0  0  0  0  0  0  0
  -12.2935  -18.4454  -21.5319 C   0  0  0  0  0  0  0  0  0  0  0  0
  -12.3055  -17.2516  -20.7796 C   0  0  0  0  0  0  0  0  0  0  0  0
  -12.5854  -16.0767  -21.3637 C   0  0  0  0  0  0  0  0  0  0  0  0
  -12.9758  -15.9816  -22.6708 C   0  0  0  0  0  0  0  0  0  0  0  0
  -14.9476  -19.1199  -25.1763 N   0  0  0  0  0  0  0  0  0  0  0  0
  -14.3807  -19.6869  -26.2134 C   0  0  0  0  0  0  0  0  0  0  0  0
  -13.1612  -19.7691  -26.3132 O   0  0  0  0  0  0  0  0  0  0  0  0
  -15.2049  -19.8761  -27.4933 C   0  0  1  0  0  0  0  0  0  0  0  0
  -13.9123  -17.7926  -27.8292 C   0  0  0  0  0  0  0  0  0  0  0  0
  -14.1606  -20.1700  -28.5578 C   0  0  0  0  0  0  0  0  0  0  0  0
  -12.9316  -19.2604  -28.5264 C   0  0  0  0  0  0  0  0  0  0  0  0
  -12.0930  -19.5447  -29.7697 C   0  0  0  0  0  0  0  0  0  0  0  0
  -10.8844  -18.6450  -29.7574 C   0  0  0  0  0  0  0  0  0  0  0  0
  -10.6830  -17.4643  -30.4099 C   0  0  0  0  0  0  0  0  0  0  0  0
  -11.7171  -16.7912  -31.2899 C   0  0  0  0  0  0  0  0  0  0  0  0
  -11.9816  -15.3829  -30.7763 C   0  0  0  0  0  0  0  0  0  0  0  0
  -13.0623  -14.6301  -31.5366 C   0  0  0  0  0  0  0  0  0  0  0  0
  -14.5064  -14.7987  -31.0076 C   0  0  1  0  0  0  0  0  0  0  0  0
  -12.8580  -16.0274  -29.4931 C   0  0  0  0  0  0  0  0  0  0  0  0
  -14.5098  -14.2859  -29.6303 N   0  0  0  0  0  0  0  0  0  0  0  0
  -13.9237  -15.0360  -28.6075 C   0  0  0  0  0  0  0  0  0  0  0  0
  -13.8507  -16.2622  -28.7613 O   0  0  0  0  0  0  0  0  0  0  0  0
  -12.7273  -14.3145  -27.9910 C   0  0  1  0  0  0  0  0  0  0  0  0
  -12.9948  -14.2254  -26.4314 C   0  0  0  0  0  0  0  0  0  0  0  0
  -12.9465  -15.5350  -25.7994 C   0  0  0  0  0  0  0  0  0  0  0  0
  -13.9654  -16.4653  -26.2078 C   0  0  0  0  0  0  0  0  0  0  0  0
  -13.5409  -17.7905  -25.8649 N   0  0  0  0  0  0  0  0  0  0  0  0
  -12.5199  -18.1102  -25.1107 C   0  0  0  0  0  0  0  0  0  0  0  0
  -12.6106  -18.9750  -24.1438 N   0  0  0  0  0  0  0  0  0  0  0  0
  -11.3122  -17.6677  -25.4687 N   0  0  0  0  0  0  0  0  0  0  0  0
  -11.2210  -17.8095  -26.6913 H   0  0  0  0  0  0  0  0  0  0  0  0
  -11.5356  -15.1060  -28.1085 N   0  0  0  0  0  0  0  0  0  0  0  0
  -10.9928  -15.7683  -27.1061 C   0  0  0  0  0  0  0  0  0  0  0  0
  -11.0625  -15.3922  -25.9255 O   0  0  0  0  0  0  0  0  0  0  0  0
  -10.4085  -17.0683  -27.4730 C   0  0  2  0  0  0  0  0  0  0  0  0
   -9.9692  -17.7739  -26.1764 C   0  0  0  0  0  0  0  0  0  0  0  0
  -10.8782  -18.8335  -25.8346 O   0  0  0  0  0  0  0  0  0  0  0  0
   -9.3120  -16.8762  -28.3300 N   0  0  0  0  0  0  0  0  0  0  0  0
   -8.9367  -15.6455  -28.7206 C   0  0  0  0  0  0  0  0  0  0  0  0
   -7.7899  -15.2334  -28.7126 O   0  0  0  0  0  0  0  0  0  0  0  0
  -10.0798  -14.6847  -28.7155 C   0  0  2  0  0  0  0  0  0  0  0  0
  -10.5554  -14.4692  -27.2294 C   0  0  0  0  0  0  0  0  0  0  0  0
   -9.6404  -15.1394  -26.2754 C   0  0  0  0  0  0  0  0  0  0  0  0
   -9.8422  -16.5237  -26.0263 C   0  0  0  0  0  0  0  0  0  0  0  0
   -8.7698  -17.3519  -25.9353 C   0  0  0  0  0  0  0  0  0  0  0  0
   -7.5017  -16.8516  -25.8589 C   0  0  0  0  0  0  0  0  0  0  0  0
   -6.4196  -17.5983  -25.8723 O   0  0  0  0  0  0  0  0  0  0  0  0
   -7.2764  -15.4670  -25.9041 C   0  0  0  0  0  0  0  0  0  0  0  0
   -8.3725  -14.6381  -25.9454 C   0  0  0  0  0  0  0  0  0  0  0  0
  -11.1570  -15.2516  -29.4518 N   0  0  0  0  0  0  0  0  0  0  0  0
  -11.1786  -16.5242  -29.7227 C   0  0  0  0  0  0  0  0  0  0  0  0
  -10.3500  -17.2763  -29.1546 O   0  0  0  0  0  0  0  0  0  0  0  0
  -12.5782  -17.0870  -30.0350 C   0  0  2  0  0  0  0  0  0  0  0  0
  -13.1712  -17.8209  -28.8605 C   0  0  0  0  0  0  0  0  0  0  0  0
  -12.1157  -18.4028  -27.8980 C   0  0  0  0  0  0  0  0  0  0  0  0
  -12.3964  -18.2013  -26.4384 C   0  0  0  0  0  0  0  0  0  0  0  0
  -12.0736  -19.3091  -25.6072 N   0  0  0  0  0  0  0  0  0  0  0  0
  -12.3495  -20.5767  -25.8577 C   0  0  0  0  0  0  0  0  0  0  0  0
  -13.6375  -20.9603  -25.7166 N   0  0  0  0  0  0  0  0  0  0  0  0
  -11.4383  -21.3612  -26.5306 N   0  0  0  0  0  0  0  0  0  0  0  0
  -10.9829  -20.6744  -27.3680 H   0  0  0  0  0  0  0  0  0  0  0  0
  -12.4299  -17.9623  -31.1902 N   0  0  0  0  0  0  0  0  0  0  0  0
  -13.2944  -19.0211  -31.4043 C   0  0  0  0  0  0  0  0  0  0  0  0
  -14.3034  -19.0625  -30.7062 O   0  0  0  0  0  0  0  0  0  0  0  0
  -13.2452  -19.5308  -32.8300 C   0  0  1  0  0  0  0  0  0  0  0  0
  -12.9029  -21.0172  -32.7315 C   0  0  0  0  0  0  0  0  0  0  0  0
  -11.4178  -21.3989  -32.9297 C   0  0  0  0  0  0  0  0  0  0  0  0
  -10.5857  -20.2046  -33.5006 C   0  0  0  0  0  0  0  0  0  0  0  0
  -11.4070  -19.1729  -34.2550 C   0  0  0  0  0  0  0  0  0  0  0  0
  -11.2240  -19.2916  -35.7537 N   0  0  0  0  0  0  0  0  0  0  0  0
  -14.5826  -19.3895  -33.4328 N   0  0  0  0  0  0  0  0  0  0  0  0
  -15.7467  -19.5397  -32.8466 C   0  0  0  0  0  0  0  0  0  0  0  0
  -15.8403  -20.2450  -31.7173 O   0  0  0  0  0  0  0  0  0  0  0  0
  -17.0112  -19.2676  -33.6307 C   0  0  2  0  0  0  0  0  0  0  0  0
  -16.6623  -19.0942  -35.0979 C   0  0  0  0  0  0  0  0  0  0  0  0
  -15.8826  -20.2571  -35.7288 C   0  0  0  0  0  0  0  0  0  0  0  0
  -14.9135  -20.8691  -34.7320 C   0  0  0  0  0  0  0  0  0  0  0  0
  -13.4555  -20.7352  -35.1445 C   0  0  0  0  0  0  0  0  0  0  0  0
  -13.2673  -20.7068  -36.6175 N   0  0  0  0  0  0  0  0  0  0  0  0
  -17.8106  -18.1526  -33.1871 N   0  0  0  0  0  0  0  0  0  0  0  0
  -19.0878  -17.8581  -33.5571 C   0  0  0  0  0  0  0  0  0  0  0  0
  -19.8354  -19.0154  -34.1764 C   0  0  0  0  0  0  0  0  0  0  0  0
  -19.7309  -16.9713  -32.9854 O   0  0  0  0  0  0  0  0  0  0  0  0
  -14.8607  -16.2893  -30.9989 C   0  0  0  0  0  0  0  0  0  0  0  0
  -15.2561  -16.7517  -29.8954 O   0  0  0  0  0  0  0  0  0  0  0  0
  -15.0532  -16.8710  -32.1506 N   0  0  0  0  0  0  0  0  0  0  0  0
  -15.3818  -18.2755  -32.2625 C   0  0  2  0  0  0  0  0  0  0  0  0
  -15.5892  -18.6605  -33.7938 C   0  0  0  0  0  0  0  0  0  0  0  0
  -15.3709  -17.6074  -34.8054 C   0  0  0  0  0  0  0  0  0  0  0  0
  -14.6942  -16.3732  -34.1998 C   0  0  0  0  0  0  0  0  0  0  0  0
  -15.5035  -15.3290  -33.9209 N   0  0  0  0  0  0  0  0  0  0  0  0
  -13.4475  -16.3315  -34.1479 O   0  0  0  0  0  0  0  0  0  0  0  0
  -16.6640  -18.6265  -31.5911 C   0  0  0  0  0  0  0  0  0  0  0  0
  -16.1296  -17.9586  -30.0439 O   0  0  0  0  0  0  0  0  0  0  0  0
  -17.6644  -17.7322  -31.6876 N   0  0  0  0  0  0  0  0  0  0  0  0
  -18.9360  -18.0117  -31.0398 C   0  0  1  0  0  0  0  0  0  0  0  0
  -19.6082  -19.2557  -31.5954 C   0  0  0  0  0  0  0  0  0  0  0  0
  -19.2088  -20.5605  -30.8455 C   0  0  2  0  0  0  0  0  0  0  0  0
  -19.7552  -20.6063  -29.4204 C   0  0  0  0  0  0  0  0  0  0  0  0
  -17.6459  -20.6967  -30.7302 C   0  0  0  0  0  0  0  0  0  0  0  0
  -18.7948  -17.9980  -29.5520 C   0  0  0  0  0  0  0  0  0  0  0  0
  -19.1934  -19.0155  -28.9043 O   0  0  0  0  0  0  0  0  0  0  0  0
  -18.0424  -17.0686  -28.9743 N   0  0  0  0  0  0  0  0  0  0  0  0
  -17.8451  -17.0485  -27.5430 C   0  0  1  0  0  0  0  0  0  0  0  0
  -19.1441  -16.8181  -26.8107 C   0  0  0  0  0  0  0  0  0  0  0  0
  -19.9403  -18.0799  -26.3535 C   0  0  2  0  0  0  0  0  0  0  0  0
  -18.9866  -19.2519  -26.3047 C   0  0  0  0  0  0  0  0  0  0  0  0
  -21.1124  -18.3890  -27.2769 C   0  0  0  0  0  0  0  0  0  0  0  0
  -17.0658  -18.3104  -27.1011 C   0  0  0  0  0  0  0  0  0  0  0  0
  -17.3320  -18.7936  -25.9680 O   0  0  0  0  0  0  0  0  0  0  0  0
  -15.9995  -18.7034  -27.8111 N   0  0  0  0  0  0  0  0  0  0  0  0
  -15.2554  -19.6830  -28.6949 C   0  0  0  0  0  0  0  0  0  0  0  0
  -15.1488  -20.9075  -28.6268 O   0  0  0  0  0  0  0  0  0  0  0  0
  -15.9546  -19.1780  -29.7322 N   0  0  0  0  0  0  0  0  0  0  0  0
  -15.4520  -19.1434  -31.0938 C   0  0  1  0  0  0  0  0  0  0  0  0
  -14.6839  -17.7914  -31.2932 C   0  0  0  0  0  0  0  0  0  0  0  0
  -14.5931  -20.3021  -31.4510 C   0  0  0  0  0  0  0  0  0  0  0  0
  -15.0673  -21.4291  -31.6471 O   0  0  0  0  0  0  0  0  0  0  0  0
  -13.3556  -20.2482  -31.2522 O   0  0  0  0  0  0  0  0  0  0  0  0
 97 99  2  0
 97 98  1  0
 96 97  1  0
 90 96  1  0
 88 90  1  0
 90 91  1  6
 88 89  2  0
 87 88  1  0
 91 92  1  0
 92 93  1  0
 93 94  1  0
 94 95  1  0
 81 87  1  0
 79 81  1  0
 81 82  1  6
 79 80  2  0
 78 79  1  0
 82 83  1  0
 83 84  1  0
 84 85  1  0
 85 86  1  0
 69 78  1  0
 67 69  1  0
 69 70  1  1
 67 68  2  0
 66 67  1  0
 70 71  1  0
 71 72  1  0
 72 73  1  0
 73 74  1  0
 74 76  2  0
 74 75  1  0
 57 66  1  0
 55 57  1  0
 57 58  1  1
 55 56  2  0
 54 55  1  0
 58 59  1  0
 59 60  4  0
 59 65  4  0
 60 61  4  0
 65 64  4  0
 61 62  4  0
 64 62  4  0
 62 63  1  0
 51 54  1  0
 49 51  1  0
 51 52  1  1
 49 50  2  0
 48 49  1  0
 52 53  1  0
 39 48  1  0
 37 39  1  0
 39 40  1  6
 37 38  2  0
 36 37  1  0
 40 41  1  0
 41 42  1  0
 42 43  1  0
 43 44  1  0
 44 45  1  0
 44 46  2  0
100101  2  0
100 34  1  0
102100  1  0
 34 36  1  0
 34 33  1  0
 34 35  1  6
 33 32  1  0
 31 30  1  0
 32 31  1  0
 30 29  2  0
103102  1  0
109103  1  0
103104  1  1
109110  2  0
111109  1  0
104105  1  0
105106  1  0
106108  2  0
106107  1  0
112111  1  0
117112  1  0
112113  1  6
117118  2  0
119117  1  0
113114  1  0
114115  1  6
114116  1  0
120119  1  0
125120  1  0
120121  1  1
125126  2  0
127125  1  0
121122  1  0
122123  1  1
122124  1  0
 22 23  2  0
 24 22  1  0
 22 21  1  0
127 24  1  0
 24 26  1  0
 24 25  1  1
 26 27  1  0
 29 28  1  0
 28 27  1  0
 21 13  1  0
 13 11  1  0
 13 14  1  6
 11 12  2  0
 11 10  1  0
 14 15  1  0
 15 16  4  0
 15 20  4  0
 16 17  4  0
 20 19  4  0
 17 18  4  0
 19 18  4  0
 10  9  1  0
  9128  1  0
  9  8  1  1
128129  2  0
128130  1  0
  8  7  1  0
  7  6  1  0
  6  5  1  0
  5  3  1  0
  3  4  1  0
  3  2  2  0
130131  1  0
131133  1  0
131132  1  1
133135  1  0
133134  2  0
 76 77  1  0
 46 47  1  0
  2  1  1  0
M  CHG  2  86   1  95   1
M  END
$$$$
