
     RDKit          3D

 33 37  0  0  0  0  0  0  0  0999 V2000
   31.4867   17.4582    6.4774 C   0  0  0  0  0  0  0  0  0  0  0  0
   30.4917   17.9895    7.4603 C   0  0  0  0  0  0  0  0  0  0  0  0
   29.2244   18.3164    6.9393 C   0  0  0  0  0  0  0  0  0  0  0  0
   28.3024   18.9652    7.7214 C   0  0  0  0  0  0  0  0  0  0  0  0
   27.2923   20.0241    7.1463 C   0  0  0  0  0  0  0  0  0  0  0  0
   26.0477   19.8183    7.4132 N   0  0  0  0  0  0  0  0  0  0  0  0
   27.6738   21.1484    6.7299 O   0  0  0  0  0  0  0  0  0  0  0  0
   28.5414   19.0575    9.0891 C   0  0  0  0  0  0  0  0  0  0  0  0
   29.8202   18.7465    9.6094 C   0  0  0  0  0  0  0  0  0  0  0  0
   30.9060   18.4235    8.7874 C   0  0  0  0  0  0  0  0  0  0  0  0
   32.0972   18.8868    8.9907 N   0  0  0  0  0  0  0  0  0  0  0  0
   33.2809   18.4653    8.3019 N   0  0  0  0  0  0  0  0  0  0  0  0
   34.1532   19.5369    8.3789 C   0  0  0  0  0  0  0  0  0  0  0  0
   35.5135   19.6616    7.8339 C   0  0  1  0  0  0  0  0  0  0  0  0
   35.7572   18.3896    6.9644 C   0  0  0  0  0  0  0  0  0  0  0  0
   35.7082   20.9904    7.1055 C   0  0  0  0  0  0  0  0  0  0  0  0
   33.6225   20.5068    9.4146 C   0  0  0  0  0  0  0  0  0  0  0  0
   34.1954   21.3242   10.4604 C   0  0  0  0  0  0  0  0  0  0  0  0
   35.4644   21.1073   11.0708 N   0  0  0  0  0  0  0  0  0  0  0  0
   35.6861   19.9622   11.6801 C   0  0  0  0  0  0  0  0  0  0  0  0
   36.9535   19.6106   11.3950 N   0  0  0  0  0  0  0  0  0  0  0  0
   37.5383   20.6832   10.8492 C   0  0  0  0  0  0  0  0  0  0  0  0
   39.0407   20.6983   10.7553 C   0  0  0  0  0  0  0  0  0  0  0  0
   39.8191   21.0205   11.8731 C   0  0  0  0  0  0  0  0  0  0  0  0
   41.1368   20.9342   11.5030 N   0  0  0  0  0  0  0  0  0  0  0  0
   41.0163   20.4128   10.1458 N   0  0  0  0  0  0  0  0  0  0  0  0
   42.3192   19.9716    9.6109 C   0  0  0  0  0  0  0  0  0  0  0  0
   39.7795   20.2481    9.7373 C   0  0  0  0  0  0  0  0  0  0  0  0
   36.5811   21.7089   10.5910 C   0  0  0  0  0  0  0  0  0  0  0  0
   33.1472   22.0292   11.1892 C   0  0  0  0  0  0  0  0  0  0  0  0
   31.8336   21.6649   11.1838 C   0  0  0  0  0  0  0  0  0  0  0  0
   31.3379   20.7620   10.3207 N   0  0  0  0  0  0  0  0  0  0  0  0
   32.1810   20.0817    9.5301 C   0  0  0  0  0  0  0  0  0  0  0  0
  7  5  2  0
  5  6  1  0
  5  4  1  0
  4  3  4  0
  4  8  4  0
  3  2  4  0
  2  1  1  0
  2 10  4  0
  8  9  4  0
  9 10  4  0
 10 11  1  0
 11 12  4  0
 11 33  4  0
 12 13  4  0
 13 14  1  0
 13 17  4  0
 14 15  1  6
 14 16  1  0
 17 33  4  0
 17 18  4  0
 33 32  4  0
 32 31  4  0
 31 30  4  0
 30 18  4  0
 18 19  1  0
 19 20  4  0
 19 29  4  0
 20 21  4  0
 21 22  4  0
 29 22  4  0
 22 23  1  0
 23 24  4  0
 23 28  4  0
 24 25  4  0
 25 26  4  0
 28 26  4  0
 26 27  1  0
M  END
$$$$
