
     RDKit          3D

 34 37  0  0  0  0  0  0  0  0999 V2000
   72.2750   -5.9930  156.7500 C   0  0  0  0  0  0  0  0  0  0  0  0
   71.3330   -6.7930  155.7940 C   0  0  2  0  0  0  0  0  0  0  0  0
   71.8130   -8.2700  155.7620 C   0  0  0  0  0  0  0  0  0  0  0  0
   71.2990   -6.2240  154.5810 N   0  0  2  0  0  0  0  0  0  0  0  0
   70.7780   -4.9350  154.6300 C   0  0  0  0  0  0  0  0  0  0  0  0
   70.3440   -4.2780  153.3220 C   0  0  0  0  0  0  0  0  0  0  0  0
   69.7310   -5.1570  152.3520 N   0  0  0  0  0  0  0  0  0  0  0  0
   69.1710   -4.5620  151.0920 C   0  0  0  0  0  0  0  0  0  0  0  0
   68.7230   -3.2360  151.1220 C   0  0  0  0  0  0  0  0  0  0  0  0
   68.1880   -2.6500  149.9670 C   0  0  0  0  0  0  0  0  0  0  0  0
   68.1050   -3.4110  148.8050 C   0  0  0  0  0  0  0  0  0  0  0  0
   67.5600   -2.7090  147.5640 C   0  0  0  0  0  0  0  0  0  0  0  0
   66.5760   -3.2330  146.7980 C   0  0  0  0  0  0  0  0  0  0  0  0
   66.1210   -2.3630  145.5650 C   0  0  0  0  0  0  0  0  0  0  0  0
   64.9400   -2.8500  144.7170 C   0  0  0  0  0  0  0  0  0  0  0  0
   64.3090   -1.5860  144.0880 C   0  0  0  0  0  0  0  0  0  0  0  0
   64.0880   -1.8340  142.7190 O   0  0  0  0  0  0  0  0  0  0  0  0
   65.8750   -4.6020  147.1220 C   0  0  0  0  0  0  0  0  0  0  0  0
   66.2220   -5.8140  146.4120 C   0  0  0  0  0  0  0  0  0  0  0  0
   65.5970   -7.0940  146.6900 C   0  0  0  0  0  0  0  0  0  0  0  0
   64.6470   -7.0070  147.6890 C   0  0  0  0  0  0  0  0  0  0  0  0
   64.1790   -5.9560  148.4640 C   0  0  0  0  0  0  0  0  0  0  0  0
   64.8460   -4.7090  148.1360 C   0  0  0  0  0  0  0  0  0  0  0  0
   68.2790   -1.3120  147.2510 C   0  0  0  0  0  0  0  0  0  0  0  0
   67.5480   -0.1260  147.1180 C   0  0  0  0  0  0  0  0  0  0  0  0
   68.1670    1.1110  146.8510 C   0  0  0  0  0  0  0  0  0  0  0  0
   69.5380    1.1670  146.7270 C   0  0  0  0  0  0  0  0  0  0  0  0
   70.2880    0.0020  146.8670 C   0  0  0  0  0  0  0  0  0  0  0  0
   71.6760    0.1250  146.7390 O   0  0  0  0  0  0  0  0  0  0  0  0
   69.6770   -1.2350  147.1350 C   0  0  0  0  0  0  0  0  0  0  0  0
   68.5580   -4.7440  148.7760 C   0  0  0  0  0  0  0  0  0  0  0  0
   69.1030   -5.3320  149.9230 C   0  0  0  0  0  0  0  0  0  0  0  0
   70.5330   -6.3520  152.2480 C   0  0  0  0  0  0  0  0  0  0  0  0
   70.7920   -7.0440  153.5870 C   0  0  0  0  0  0  0  0  0  0  0  0
 10 11  2  0
  9 10  1  0
 31 11  1  0
 11 12  1  0
 32 31  2  0
 24 30  2  0
 24 25  1  0
 12 24  1  0
 30 28  1  0
 25 26  2  0
 13 14  1  0
 13 18  1  0
 12 13  2  0
 14 15  1  0
 15 16  1  0
 16 17  1  0
 18 19  2  0
 18 23  1  0
 19 20  1  0
 20 21  2  0
 22 21  1  0
 23 22  2  0
  2  1  1  1
  2  3  1  0
  4  2  1  0
  6  5  1  0
  4  5  1  1
  7  6  1  0
 33 34  1  0
  7 33  1  0
 34  4  1  0
  8  9  2  0
  8 32  1  0
  8  7  1  0
 28 27  2  0
 28 29  1  0
 27 26  1  0
M  CHG  1   4   1
M  END
$$$$
