
     RDKit          3D

 34 37  0  0  0  0  0  0  0  0999 V2000
   71.2427   -5.2454  157.1721 C   0  0  0  0  0  0  0  0  0  0  0  0
   71.2460   -6.1820  155.9173 C   0  0  1  0  0  0  0  0  0  0  0  0
   71.0484   -7.6270  156.3177 C   0  0  0  0  0  0  0  0  0  0  0  0
   70.3755   -5.7504  154.9784 N   0  0  1  0  0  0  0  0  0  0  0  0
   70.2213   -4.3468  154.9601 C   0  0  0  0  0  0  0  0  0  0  0  0
   69.5178   -3.7009  153.7699 C   0  0  0  0  0  0  0  0  0  0  0  0
   69.7200   -4.3667  152.5083 N   0  0  0  0  0  0  0  0  0  0  0  0
   69.1107   -3.6844  151.2820 C   0  0  0  0  0  0  0  0  0  0  0  0
   69.9269   -3.5487  150.1351 C   0  0  0  0  0  0  0  0  0  0  0  0
   69.3350   -3.4717  148.8515 C   0  0  0  0  0  0  0  0  0  0  0  0
   67.9786   -3.3111  148.8022 C   0  0  0  0  0  0  0  0  0  0  0  0
   67.4784   -2.5631  147.5441 C   0  0  0  0  0  0  0  0  0  0  0  0
   66.5121   -3.1062  146.7278 C   0  0  0  0  0  0  0  0  0  0  0  0
   66.5242   -2.5744  145.2326 C   0  0  0  0  0  0  0  0  0  0  0  0
   65.5311   -1.5220  144.7894 C   0  0  0  0  0  0  0  0  0  0  0  0
   65.7959   -1.2956  143.2983 C   0  0  0  0  0  0  0  0  0  0  0  0
   64.5247   -1.1962  142.6766 O   0  0  0  0  0  0  0  0  0  0  0  0
   65.7132   -4.4098  147.0904 C   0  0  0  0  0  0  0  0  0  0  0  0
   65.7730   -4.9587  148.4428 C   0  0  0  0  0  0  0  0  0  0  0  0
   65.2275   -6.2380  148.7678 C   0  0  0  0  0  0  0  0  0  0  0  0
   64.7113   -6.9005  147.6748 C   0  0  0  0  0  0  0  0  0  0  0  0
   64.5396   -6.5360  146.3844 C   0  0  0  0  0  0  0  0  0  0  0  0
   65.0193   -5.2017  146.0976 C   0  0  0  0  0  0  0  0  0  0  0  0
   68.4493   -1.3841  147.0705 C   0  0  0  0  0  0  0  0  0  0  0  0
   69.7989   -1.6368  146.8619 C   0  0  0  0  0  0  0  0  0  0  0  0
   70.7207   -0.5829  146.6014 C   0  0  0  0  0  0  0  0  0  0  0  0
   70.2661    0.7015  146.5089 C   0  0  0  0  0  0  0  0  0  0  0  0
   68.9069    0.9459  146.6983 C   0  0  0  0  0  0  0  0  0  0  0  0
   68.5096    2.2931  146.7056 O   0  0  0  0  0  0  0  0  0  0  0  0
   67.9860   -0.0883  146.9333 C   0  0  0  0  0  0  0  0  0  0  0  0
   67.1699   -3.3963  149.9451 C   0  0  0  0  0  0  0  0  0  0  0  0
   67.7748   -3.4725  151.2135 C   0  0  0  0  0  0  0  0  0  0  0  0
   69.5906   -5.7645  152.6556 C   0  0  0  0  0  0  0  0  0  0  0  0
   70.4481   -6.3700  153.7596 C   0  0  0  0  0  0  0  0  0  0  0  0
 10 11  4  0
  9 10  4  0
 31 11  4  0
 11 12  1  0
 32 31  4  0
 24 30  4  0
 24 25  4  0
 12 24  1  0
 30 28  4  0
 25 26  4  0
 13 14  1  0
 13 18  1  0
 12 13  2  0
 14 15  1  0
 15 16  1  0
 16 17  1  0
 18 19  4  0
 18 23  4  0
 19 20  4  0
 20 21  4  0
 22 21  4  0
 23 22  4  0
  2  1  1  6
  2  3  1  0
  4  2  1  0
  6  5  1  0
  4  5  1  1
  7  6  1  0
 33 34  1  0
  7 33  1  0
 34  4  1  0
  8  9  4  0
  8 32  4  0
  8  7  1  0
 28 27  4  0
 28 29  1  0
 27 26  4  0
M  CHG  1   4   1
M  END
$$$$
