
     RDKit          3D

 36 36  0  0  0  0  0  0  0  0999 V2000
   10.6320  -20.7610  -81.6010 O   0  0  0  0  0  0  0  0  0  0  0  0
    9.6870  -21.5320  -80.7100 P   0  0  2  0  0  0  0  0  0  0  0  0
   10.1040  -21.3050  -79.2740 O   0  0  0  0  0  0  0  0  0  0  0  0
    9.8230  -23.0110  -81.0010 O   0  0  0  0  0  0  0  0  0  0  0  0
    8.1310  -20.9970  -80.9710 O   0  0  0  0  0  0  0  0  0  0  0  0
    7.6510  -19.9980  -80.0970 C   0  0  1  0  0  0  0  0  0  0  0  0
    6.6220  -19.0100  -80.6460 C   0  0  2  0  0  0  0  0  0  0  0  0
    7.1940  -18.3480  -81.7270 O   0  0  0  0  0  0  0  0  0  0  0  0
    6.5400  -18.7920  -83.1660 P   0  0  2  0  0  0  0  0  0  0  0  0
    6.7300  -17.6840  -84.1710 O   0  0  0  0  0  0  0  0  0  0  0  0
    5.0610  -19.0510  -82.9870 O   0  0  0  0  0  0  0  0  0  0  0  0
    7.2140  -20.0610  -83.6370 O   0  0  0  0  0  0  0  0  0  0  0  0
    6.3440  -18.0290  -79.4980 C   0  0  1  0  0  0  0  0  0  0  0  0
    5.6070  -16.9380  -79.9630 O   0  0  0  0  0  0  0  0  0  0  0  0
    6.4680  -15.5400  -79.9160 P   0  0  2  0  0  0  0  0  0  0  0  0
    5.8760  -14.5290  -80.8690 O   0  0  0  0  0  0  0  0  0  0  0  0
    7.8920  -15.8420  -80.3230 O   0  0  0  0  0  0  0  0  0  0  0  0
    6.4490  -15.0210  -78.4960 O   0  0  0  0  0  0  0  0  0  0  0  0
    5.6280  -18.7110  -78.3210 C   0  0  2  0  0  0  0  0  0  0  0  0
    5.4000  -17.7760  -77.2930 O   0  0  0  0  0  0  0  0  0  0  0  0
    3.8550  -17.3740  -76.8590 P   0  0  1  0  0  0  0  0  0  0  0  0
    3.6650  -15.8860  -77.0420 O   0  0  0  0  0  0  0  0  0  0  0  0
    2.8600  -18.1050  -77.7310 O   0  0  0  0  0  0  0  0  0  0  0  0
    3.6090  -17.7410  -75.4110 O   0  0  0  0  0  0  0  0  0  0  0  0
    6.4510  -19.8910  -77.7540 C   0  0  1  0  0  0  0  0  0  0  0  0
    5.5350  -20.6840  -77.0170 O   0  0  0  0  0  0  0  0  0  0  0  0
    5.8630  -21.3450  -75.5330 P   0  0  1  0  0  0  0  0  0  0  0  0
    7.0720  -22.2430  -75.6310 O   0  0  0  0  0  0  0  0  0  0  0  0
    6.1200  -20.2640  -74.5090 O   0  0  0  0  0  0  0  0  0  0  0  0
    4.6880  -22.1750  -75.0610 O   0  0  0  0  0  0  0  0  0  0  0  0
    7.1510  -20.7490  -78.8300 C   0  0  1  0  0  0  0  0  0  0  0  0
    6.2150  -21.7630  -79.1780 O   0  0  0  0  0  0  0  0  0  0  0  0
    6.5060  -23.3990  -79.1110 P   0  0  1  0  0  0  0  0  0  0  0  0
    7.3030  -23.8130  -80.3240 O   0  0  0  0  0  0  0  0  0  0  0  0
    7.2720  -23.7740  -77.8650 O   0  0  0  0  0  0  0  0  0  0  0  0
    5.2010  -24.1660  -79.1320 O   0  0  0  0  0  0  0  0  0  0  0  0
 25 19  1  0
 25 31  1  0
 25 26  1  6
 19 13  1  0
 19 20  1  1
 13  7  1  0
 13 14  1  6
  7  6  1  0
  7  8  1  6
  6 31  1  0
  6  5  1  6
 31 32  1  6
 26 27  1  0
 27 29  1  1
 27 28  2  0
 27 30  1  0
 20 21  1  0
 21 23  1  6
 21 24  1  0
 21 22  2  0
 14 15  1  0
 15 16  2  0
 15 17  1  6
 15 18  1  0
  8  9  1  0
  9 10  2  0
  9 11  1  1
  9 12  1  0
  5  2  1  0
  2  1  2  0
  2  3  1  1
  2  4  1  0
 32 33  1  0
 33 35  1  1
 33 34  2  0
 33 36  1  0
M  END
$$$$
