
     RDKit          3D

 26 27  0  0  0  0  0  0  0  0999 V2000
  -21.0640   39.7770    9.7170 C   0  0  0  0  0  0  0  0  0  0  0  0
  -21.3990   41.4890    9.2400 S   0  0  0  0  0  0  0  0  0  0  0  0
  -22.1210   41.2710    7.5820 C   0  0  2  0  0  0  0  0  0  0  0  0
  -21.3500   40.3110    6.8590 O   0  0  0  0  0  0  0  0  0  0  0  0
  -22.0720   39.7950    5.7400 C   0  0  2  0  0  0  0  0  0  0  0  0
  -21.1870   38.6960    5.1560 C   0  0  0  0  0  0  0  0  0  0  0  0
  -19.8860   39.2130    4.8770 O   0  0  0  0  0  0  0  0  0  0  0  0
  -19.7090   39.3500    3.4500 C   0  0  2  0  0  0  0  0  0  0  0  0
  -19.6400   38.0930    2.7540 O   0  0  0  0  0  0  0  0  0  0  0  0
  -18.5050   37.3170    3.1710 C   0  0  1  0  0  0  0  0  0  0  0  0
  -18.4970   35.9820    2.4700 C   0  0  0  0  0  0  0  0  0  0  0  0
  -17.2030   38.0490    2.8670 C   0  0  1  0  0  0  0  0  0  0  0  0
  -17.0620   38.3240    1.4620 O   0  0  0  0  0  0  0  0  0  0  0  0
  -17.2070   39.3500    3.6560 C   0  0  1  0  0  0  0  0  0  0  0  0
  -16.0050   40.0640    3.3740 O   0  0  0  0  0  0  0  0  0  0  0  0
  -18.4410   40.1680    3.2660 C   0  0  2  0  0  0  0  0  0  0  0  0
  -18.5250   41.3220    4.1080 O   0  0  0  0  0  0  0  0  0  0  0  0
  -22.5220   40.9000    4.7470 C   0  0  1  0  0  0  0  0  0  0  0  0
  -23.3890   40.4010    3.6910 O   0  0  0  0  0  0  0  0  0  0  0  0
  -23.3090   41.9650    5.5030 C   0  0  2  0  0  0  0  0  0  0  0  0
  -23.7920   42.9410    4.5630 O   0  0  0  0  0  0  0  0  0  0  0  0
  -22.4910   42.4900    6.7050 C   0  0  1  0  0  0  0  0  0  0  0  0
  -23.2290   43.5380    7.4120 N   0  0  0  0  0  0  0  0  0  0  0  0
  -22.7660   44.7880    7.6420 C   0  0  0  0  0  0  0  0  0  0  0  0
  -23.7350   45.6960    8.3880 C   0  0  0  0  0  0  0  0  0  0  0  0
  -21.6430   45.1800    7.2770 O   0  0  0  0  0  0  0  0  0  0  0  0
 22  3  1  0
  3  4  1  0
  3  2  1  1
 22 20  1  0
 22 23  1  1
 20 18  1  0
 20 21  1  6
 18  5  1  0
 18 19  1  6
  5  6  1  6
  4  5  1  0
  6  7  1  0
 24 25  1  0
 24 23  1  0
 24 26  2  0
  8  7  1  1
  8 16  1  0
  8  9  1  0
 16 14  1  0
 16 17  1  1
 14 12  1  0
 14 15  1  6
 12 10  1  0
 12 13  1  6
 10 11  1  6
 10  9  1  0
  2  1  1  0
M  END
$$$$
