
     RDKit          3D

 21 23  0  0  0  0  0  0  0  0999 V2000
   -6.0270   -2.4630   27.6510 O   0  0  0  0  0  0  0  0  0  0  0  0
   -5.7340   -1.9350   28.6800 C   0  0  0  0  0  0  0  0  0  0  0  0
   -5.2040   -0.7480   28.6930 N   0  0  0  0  0  0  0  0  0  0  0  0
   -4.9000    0.0530   27.5710 C   0  0  0  0  0  0  0  0  0  0  0  0
   -3.3980    0.2960   27.6430 C   0  0  1  0  0  0  0  0  0  0  0  0
   -2.6500   -1.0070   27.7480 C   0  0  0  0  0  0  0  0  0  0  0  0
   -1.2040   -0.7520   27.9360 C   0  0  0  0  0  0  0  0  0  0  0  0
   -0.7010    0.0290   26.7680 C   0  0  0  0  0  0  0  0  0  0  0  0
   -1.5240    1.3110   26.6940 C   0  0  0  0  0  0  0  0  0  0  0  0
   -2.9350    0.9930   26.4620 C   0  0  0  0  0  0  0  0  0  0  0  0
   -5.9660   -2.5760   29.9070 C   0  0  0  0  0  0  0  0  0  0  0  0
   -6.5180   -3.8290   29.9700 C   0  0  0  0  0  0  0  0  0  0  0  0
   -6.6630   -4.4450   31.1840 C   0  0  0  0  0  0  0  0  0  0  0  0
   -7.1340   -5.5520   31.2570 O   0  0  0  0  0  0  0  0  0  0  0  0
   -6.2420   -3.7800   32.3010 C   0  0  0  0  0  0  0  0  0  0  0  0
   -6.3410   -4.3400   33.5330 C   0  0  0  0  0  0  0  0  0  0  0  0
   -5.8890   -3.6840   34.6440 C   0  0  0  0  0  0  0  0  0  0  0  0
   -5.3200   -2.4430   34.5410 C   0  0  0  0  0  0  0  0  0  0  0  0
   -5.2270   -1.8740   33.3120 C   0  0  0  0  0  0  0  0  0  0  0  0
   -5.6650   -2.5510   32.2060 C   0  0  0  0  0  0  0  0  0  0  0  0
   -5.5700   -1.9830   31.0340 O   0  0  0  0  0  0  0  0  0  0  0  0
 21 20  1  0
 20 19  2  0
 20 15  1  0
  5  4  1  6
  5  6  1  0
  5 10  1  0
  3  4  1  0
  6  7  1  0
  7  8  1  0
  9  8  1  0
 10  9  1  0
  2  3  1  0
  2  1  2  0
 11  2  1  0
 11 21  1  0
 11 12  2  0
 19 18  1  0
 18 17  2  0
 17 16  1  0
 16 15  2  0
 15 13  1  0
 13 14  2  0
 13 12  1  0
M  END
$$$$
