
     RDKit          3D

 26 29  0  0  0  0  0  0  0  0999 V2000
  -10.2384   26.4358   53.9741 C   0  0  0  0  0  0  0  0  0  0  0  0
  -11.7341   26.1826   53.7550 C   0  0  0  0  0  0  0  0  0  0  0  0
  -12.2393   26.3925   52.6313 N   0  0  0  0  0  0  0  0  0  0  0  0
  -13.3748   25.5240   52.3650 C   0  0  1  0  0  0  0  0  0  0  0  0
  -12.9834   24.3849   51.4603 C   0  0  0  0  0  0  0  0  0  0  0  0
  -11.6935   24.3720   50.8455 C   0  0  0  0  0  0  0  0  0  0  0  0
  -11.1187   23.2827   51.5612 N   0  0  0  0  0  0  0  0  0  0  0  0
   -9.7177   23.5205   52.4387 S   0  0  1  0  0  0  0  0  0  0  0  0
   -9.9640   23.3880   53.8517 O   0  0  0  0  0  0  0  0  0  0  0  0
   -8.7606   22.5203   52.1172 O   0  0  0  0  0  0  0  0  0  0  0  0
   -9.0861   25.0012   52.1620 C   0  0  0  0  0  0  0  0  0  0  0  0
   -9.4531   26.0626   52.9992 C   0  0  0  0  0  0  0  0  0  0  0  0
   -9.4175   27.3517   52.5511 C   0  0  0  0  0  0  0  0  0  0  0  0
   -8.7570   27.6286   51.2738 C   0  0  0  0  0  0  0  0  0  0  0  0
   -8.1981   26.5998   50.5670 C   0  0  0  0  0  0  0  0  0  0  0  0
   -8.4316   25.2756   50.9679 C   0  0  0  0  0  0  0  0  0  0  0  0
   -8.0629   23.9817   49.7635 Cl  0  0  0  0  0  0  0  0  0  0  0  0
  -12.1279   22.3978   51.8893 C   0  0  0  0  0  0  0  0  0  0  0  0
  -12.1663   21.0966   52.2797 C   0  0  0  0  0  0  0  0  0  0  0  0
  -13.3623   20.4415   52.5655 C   0  0  0  0  0  0  0  0  0  0  0  0
  -14.5650   21.2052   52.4870 C   0  0  0  0  0  0  0  0  0  0  0  0
  -15.8866   20.4190   52.4936 C   0  0  0  0  0  0  0  0  0  0  0  0
  -14.5344   22.5246   52.1736 C   0  0  0  0  0  0  0  0  0  0  0  0
  -13.3207   23.0763   51.7945 C   0  0  0  0  0  0  0  0  0  0  0  0
  -13.6632   25.0345   53.8444 C   0  0  0  0  0  0  0  0  0  0  0  0
  -12.4998   25.4593   54.5072 N   0  0  0  0  0  0  0  0  0  0  0  0
  8 11  1  6
 11 12  4  0
 11 16  4  0
 12 13  4  0
 13 14  4  0
  4  5  1  1
  4  3  1  0
  4 25  1  0
  3  2  2  0
  2 26  1  0
  2  1  1  0
 21 22  1  0
  8  9  2  0
  8 10  2  0
  8  7  1  0
 16 17  1  0
 16 15  4  0
 15 14  4  0
  6  7  4  0
 18  7  4  0
  5  6  4  0
 18 19  4  0
 24 18  4  0
 19 20  4  0
 23 24  4  0
 24  5  4  0
 23 21  4  0
 21 20  4  0
 25 26  1  0
M  END
$$$$
