
     RDKit          3D

 25 27  0  0  0  0  0  0  0  0999 V2000
    7.7690    8.2010   85.1760 C   0  0  0  0  0  0  0  0  0  0  0  0
    6.7110    8.0100   84.1220 C   0  0  0  0  0  0  0  0  0  0  0  0
    5.5730    7.4770   84.4500 C   0  0  0  0  0  0  0  0  0  0  0  0
    4.5580    7.3210   83.3820 C   0  0  0  0  0  0  0  0  0  0  0  0
    3.2960    7.9950   83.7150 N   0  0  0  0  0  0  0  0  0  0  0  0
    3.2040    9.3620   83.6650 C   0  0  0  0  0  0  0  0  0  0  0  0
    2.0230   10.0030   83.9210 C   0  0  0  0  0  0  0  0  0  0  0  0
    1.9340   11.4980   83.8840 C   0  0  0  0  0  0  0  0  0  0  0  0
    0.8050   12.1760   83.3860 C   0  0  0  0  0  0  0  0  0  0  0  0
    0.7570   13.5710   83.3890 C   0  0  0  0  0  0  0  0  0  0  0  0
    1.8300   14.2920   83.9200 C   0  0  0  0  0  0  0  0  0  0  0  0
    2.9670   13.6290   84.4110 C   0  0  0  0  0  0  0  0  0  0  0  0
    4.1260   14.3570   84.9940 C   0  0  0  0  0  0  0  0  0  0  0  0
    4.3620   14.2680   86.1950 O   0  0  0  0  0  0  0  0  0  0  0  0
    4.9460   15.1230   84.2720 N   0  0  0  0  0  0  0  0  0  0  0  0
    6.0730   15.7630   84.9820 C   0  0  0  0  0  0  0  0  0  0  0  0
    4.7600   15.2680   82.8260 C   0  0  0  0  0  0  0  0  0  0  0  0
    3.0070   12.2310   84.4050 C   0  0  0  0  0  0  0  0  0  0  0  0
    0.8380    9.1860   84.2620 C   0  0  0  0  0  0  0  0  0  0  0  0
   -0.5210    9.4530   84.5910 C   0  0  0  0  0  0  0  0  0  0  0  0
   -1.1590    8.2700   84.8060 C   0  0  0  0  0  0  0  0  0  0  0  0
   -0.2610    7.2580   84.6310 N   0  0  0  0  0  0  0  0  0  0  0  0
    0.9760    7.7870   84.3080 C   0  0  0  0  0  0  0  0  0  0  0  0
    2.2320    7.2220   84.0160 C   0  0  0  0  0  0  0  0  0  0  0  0
    2.3570    6.0120   84.0560 O   0  0  0  0  0  0  0  0  0  0  0  0
  4  3  1  0
  5  4  1  0
 24 23  1  0
  5 24  1  0
 24 25  2  0
  6  7  2  0
  6  5  1  0
  7 19  1  0
  7  8  1  0
 19 20  1  0
 19 23  2  0
 20 21  2  0
 21 22  1  0
 23 22  1  0
  3  2  2  3
  2  1  1  0
  8  9  2  0
  8 18  1  0
  9 10  1  0
 10 11  2  0
 11 12  1  0
 12 18  2  0
 12 13  1  0
 13 14  2  0
 13 15  1  0
 15 16  1  0
 15 17  1  0
M  END
$$$$
