
     RDKit          3D

 33 36  0  0  0  0  0  0  0  0999 V2000
   20.3691  112.2908 -105.0191 C   0  0  0  0  0  0  0  0  0  0  0  0
   21.3763  111.8029 -103.9912 C   0  0  2  0  0  0  0  0  0  0  0  0
   21.3017  112.4640 -102.6503 C   0  0  0  0  0  0  0  0  0  0  0  0
   22.7458  112.0808 -104.5671 C   0  0  0  0  0  0  0  0  0  0  0  0
   23.8168  111.3056 -103.8138 C   0  0  0  0  0  0  0  0  0  0  0  0
   24.9696  111.5667 -104.0971 O   0  0  0  0  0  0  0  0  0  0  0  0
   23.4658  109.8707 -103.1449 C   0  0  0  0  0  0  0  0  0  0  0  0
   24.2489  108.8028 -102.6797 C   0  0  0  0  0  0  0  0  0  0  0  0
   25.7111  108.8673 -102.1058 C   0  0  2  0  0  0  0  0  0  0  0  0
   25.8266  107.8768 -101.1839 F   0  0  0  0  0  0  0  0  0  0  0  0
   26.0757  110.0825 -101.5510 F   0  0  0  0  0  0  0  0  0  0  0  0
   26.5340  108.5890 -103.1048 F   0  0  0  0  0  0  0  0  0  0  0  0
   23.4328  107.6952 -102.5170 N   0  0  0  0  0  0  0  0  0  0  0  0
   22.0863  108.1511 -102.5925 N   0  0  0  0  0  0  0  0  0  0  0  0
   21.0275  107.7454 -101.7508 C   0  0  0  0  0  0  0  0  0  0  0  0
   19.7258  107.6216 -102.2523 C   0  0  0  0  0  0  0  0  0  0  0  0
   18.6862  107.5395 -101.3822 C   0  0  0  0  0  0  0  0  0  0  0  0
   18.9727  107.4961 -100.0406 C   0  0  0  0  0  0  0  0  0  0  0  0
   17.8949  106.7952  -99.0825 C   0  0  0  0  0  0  0  0  0  0  0  0
   17.2475  105.6759  -99.6872 N   0  0  0  0  0  0  0  0  0  0  0  0
   17.4725  107.4911  -98.2000 O   0  0  0  0  0  0  0  0  0  0  0  0
   20.1888  107.7383  -99.4485 C   0  0  0  0  0  0  0  0  0  0  0  0
   20.2326  108.2300  -98.0734 N   0  0  0  0  0  0  0  0  0  0  0  0
   21.4838  108.4998  -97.3329 C   0  0  1  0  0  0  0  0  0  0  0  0
   21.3572  109.8386  -96.5694 C   0  0  0  0  0  0  0  0  0  0  0  0
   22.6222  110.1077  -95.7562 C   0  0  0  0  0  0  0  0  0  0  0  0
   23.1174  108.9579  -94.8669 C   0  0  1  0  0  0  0  0  0  0  0  0
   22.4137  108.9668  -93.6237 O   0  0  0  0  0  0  0  0  0  0  0  0
   22.9579  107.5636  -95.4635 C   0  0  0  0  0  0  0  0  0  0  0  0
   21.6786  107.3843  -96.3185 C   0  0  0  0  0  0  0  0  0  0  0  0
   21.2825  107.7091 -100.3601 C   0  0  0  0  0  0  0  0  0  0  0  0
   22.1355  109.3898 -103.1999 C   0  0  0  0  0  0  0  0  0  0  0  0
   21.0595  110.3632 -103.8462 C   0  0  0  0  0  0  0  0  0  0  0  0
 24 23  1  6
 24 25  1  0
 24 30  1  0
 22 18  4  0
 22 23  1  0
 31 22  4  0
 17 18  4  0
 18 19  1  0
 19 20  1  0
 15 16  4  0
 16 17  4  0
 19 21  2  0
 14 15  1  0
 14 13  4  0
 32 14  4  0
 15 31  4  0
  8 13  4  0
 29 27  1  0
 30 29  1  0
 26 27  1  0
 27 28  1  1
 25 26  1  0
  7  8  4  0
  8  9  1  0
  7 32  4  0
  5  7  1  0
 32 33  1  0
  4  2  1  0
  4  5  1  0
  2  1  1  6
  9 10  1  6
  5  6  2  0
  9 11  1  0
  9 12  1  0
 33  2  1  0
  2  3  1  0
M  END
$$$$
