
     RDKit          3D

 34 37  0  0  0  0  0  0  0  0999 V2000
   12.3730  -20.1830  -24.0330 C   0  0  0  0  0  0  0  0  0  0  0  0
   13.6770  -20.9790  -24.1100 C   0  0  0  0  0  0  0  0  0  0  0  0
   13.9120  -21.6320  -22.8420 N   0  0  0  0  0  0  0  0  0  0  0  0
   14.8030  -22.7630  -22.8110 C   0  0  0  0  0  0  0  0  0  0  0  0
   15.3050  -23.1300  -23.8260 O   0  0  0  0  0  0  0  0  0  0  0  0
   15.0530  -23.4660  -21.4800 C   0  0  0  0  0  0  0  0  0  0  0  0
   15.1240  -22.8700  -20.2560 N   0  0  0  0  0  0  0  0  0  0  0  0
   15.3750  -23.8750  -19.2810 O   0  0  0  0  0  0  0  0  0  0  0  0
   15.4570  -25.0420  -19.9460 C   0  0  0  0  0  0  0  0  0  0  0  0
   15.6970  -26.2850  -19.3680 C   0  0  0  0  0  0  0  0  0  0  0  0
   14.8010  -27.3360  -19.5820 C   0  0  0  0  0  0  0  0  0  0  0  0
   15.0490  -28.5630  -18.9910 C   0  0  0  0  0  0  0  0  0  0  0  0
   14.1030  -29.7420  -19.1790 C   0  0  1  0  0  0  0  0  0  0  0  0
   12.6650  -29.3230  -18.7540 C   0  0  0  0  0  0  0  0  0  0  0  0
   14.0280  -30.1990  -20.6270 C   0  0  0  0  0  0  0  0  0  0  0  0
   16.1880  -28.7180  -18.2140 C   0  0  0  0  0  0  0  0  0  0  0  0
   16.4710  -29.9480  -17.6740 O   0  0  0  0  0  0  0  0  0  0  0  0
   17.0720  -27.6840  -17.9960 C   0  0  0  0  0  0  0  0  0  0  0  0
   16.8200  -26.4510  -18.5670 C   0  0  0  0  0  0  0  0  0  0  0  0
   17.6820  -25.3560  -18.3810 O   0  0  0  0  0  0  0  0  0  0  0  0
   15.2660  -24.8140  -21.3180 C   0  0  0  0  0  0  0  0  0  0  0  0
   15.3390  -25.7660  -22.3510 C   0  0  0  0  0  0  0  0  0  0  0  0
   16.4990  -26.5130  -22.4920 C   0  0  0  0  0  0  0  0  0  0  0  0
   16.5980  -27.4640  -23.5070 C   0  0  0  0  0  0  0  0  0  0  0  0
   15.5450  -27.6720  -24.3830 C   0  0  0  0  0  0  0  0  0  0  0  0
   15.6620  -28.7360  -25.5080 C   0  0  0  0  0  0  0  0  0  0  0  0
   14.6640  -29.7990  -25.3690 N   0  0  2  0  0  0  0  0  0  0  0  0
   14.6780  -30.3060  -24.0350 C   0  0  0  0  0  0  0  0  0  0  0  0
   14.5530  -31.8230  -23.9080 C   0  0  0  0  0  0  0  0  0  0  0  0
   13.7530  -32.4600  -24.8930 O   0  0  0  0  0  0  0  0  0  0  0  0
   13.9330  -31.9910  -26.2220 C   0  0  0  0  0  0  0  0  0  0  0  0
   14.9100  -30.8080  -26.3680 C   0  0  0  0  0  0  0  0  0  0  0  0
   14.3940  -26.9140  -24.2450 C   0  0  0  0  0  0  0  0  0  0  0  0
   14.2850  -25.9590  -23.2500 C   0  0  0  0  0  0  0  0  0  0  0  0
 28 29  1  0
 28 27  1  0
 29 30  1  0
 30 31  1  0
 31 32  1  0
 32 27  1  0
 27 26  1  1
 26 25  1  0
 25 24  2  0
 25 33  1  0
 24 23  1  0
 23 22  2  0
 33 34  2  0
 34 22  1  0
 22 21  1  0
 21  6  1  0
 21  9  2  0
  6  4  1  0
  6  7  2  0
  4  5  2  0
  4  3  1  0
  3  2  1  0
  2  1  1  0
  7  8  1  0
  8  9  1  0
  9 10  1  0
 10 11  2  0
 10 19  1  0
 11 12  1  0
 12 13  1  0
 12 16  2  0
 13 14  1  6
 13 15  1  0
 16 17  1  0
 16 18  1  0
 18 19  2  0
 19 20  1  0
M  CHG  1  27   1
M  END
$$$$
