
     RDKit          3D

 20 20  0  0  0  0  0  0  0  0999 V2000
  131.1022   35.2283  -10.3239 C   0  0  0  0  0  0  0  0  0  0  0  0
  131.4091   33.7828  -10.1102 C   0  0  0  0  0  0  0  0  0  0  0  0
  130.4808   32.9355  -10.4836 O   0  0  0  0  0  0  0  0  0  0  0  0
  132.6467   33.3909  -10.0350 N   0  0  0  0  0  0  0  0  0  0  0  0
  133.4984   33.3573  -11.2252 C   0  0  2  0  0  0  0  0  0  0  0  0
  134.1541   32.0130  -11.3572 C   0  0  1  0  0  0  0  0  0  0  0  0
  134.8907   31.8694  -12.6064 O   0  0  0  0  0  0  0  0  0  0  0  0
  135.0365   31.8425  -10.1144 C   0  0  0  0  0  0  0  0  0  0  0  0
  135.7761   32.9053   -9.6764 C   0  0  0  0  0  0  0  0  0  0  0  0
  137.1410   32.8075   -9.0547 C   0  0  0  0  0  0  0  0  0  0  0  0
  137.8505   33.8065   -9.0206 O   0  0  0  0  0  0  0  0  0  0  0  0
  137.6124   31.6389   -8.9759 O   0  0  0  0  0  0  0  0  0  0  0  0
  135.4942   34.2376  -10.0994 O   0  0  0  0  0  0  0  0  0  0  0  0
  134.5324   34.4828  -11.1347 C   0  0  1  0  0  0  0  0  0  0  0  0
  135.2977   34.8013  -12.3977 C   0  0  2  0  0  0  0  0  0  0  0  0
  135.7060   33.6169  -13.0270 O   0  0  0  0  0  0  0  0  0  0  0  0
  136.5600   35.6209  -12.1362 C   0  0  2  0  0  0  0  0  0  0  0  0
  137.5540   34.8744  -11.4687 O   0  0  0  0  0  0  0  0  0  0  0  0
  136.1358   36.8405  -11.3316 C   0  0  0  0  0  0  0  0  0  0  0  0
  136.3109   38.0302  -12.0284 O   0  0  0  0  0  0  0  0  0  0  0  0
  9 10  1  0
 10 12  1  0
 10 11  2  0
  8  9  2  0
 13  9  1  0
  6  8  1  0
  5  6  1  0
  6  7  1  6
  5 14  1  0
  5  4  1  1
 14 15  1  0
 14 13  1  1
 15 17  1  0
 15 16  1  1
 17 19  1  0
 17 18  1  1
 19 20  1  0
  2  1  1  0
  2  4  1  0
  2  3  2  0
M  END
$$$$
