
     RDKit          3D

 23 25  0  0  0  0  0  0  0  0999 V2000
    5.3290  122.6620   48.6890 N   0  0  0  0  0  0  0  0  0  0  0  0
    4.5120  123.2060   49.7000 C   0  0  0  0  0  0  0  0  0  0  0  0
    5.0790  123.5890   50.8600 N   0  0  0  0  0  0  0  0  0  0  0  0
    4.3460  124.1470   51.8680 C   0  0  0  0  0  0  0  0  0  0  0  0
    3.0340  124.3440   51.7120 N   0  0  0  0  0  0  0  0  0  0  0  0
    2.4060  123.9760   50.5390 C   0  0  0  0  0  0  0  0  0  0  0  0
    3.1380  123.4080   49.5120 C   0  0  0  0  0  0  0  0  0  0  0  0
    2.2660  123.1380   48.4780 N   0  0  0  0  0  0  0  0  0  0  0  0
    1.0320  123.5250   48.8500 C   0  0  0  0  0  0  0  0  0  0  0  0
    1.1070  124.0350   50.1120 N   0  0  0  0  0  0  0  0  0  0  0  0
    0.0350  124.5870   50.8840 C   0  0  2  0  0  0  0  0  0  0  0  0
   -1.0870  124.0470   50.6010 O   0  0  0  0  0  0  0  0  0  0  0  0
   -1.9200  125.0960   49.9030 C   0  0  2  0  0  0  0  0  0  0  0  0
   -2.5590  124.4970   48.7360 C   0  0  0  0  0  0  0  0  0  0  0  0
   -1.9330  124.3150   47.7320 O   0  0  0  0  0  0  0  0  0  0  0  0
   -3.9180  124.0800   48.8040 N   0  0  0  0  0  0  0  0  0  0  0  0
   -4.5210  123.4350   47.6020 C   0  0  0  0  0  0  0  0  0  0  0  0
   -5.1840  124.4800   46.7580 C   0  0  0  0  0  0  0  0  0  0  0  0
   -6.3390  124.9580   47.4540 O   0  0  0  0  0  0  0  0  0  0  0  0
   -0.8960  126.2560   49.5960 C   0  0  1  0  0  0  0  0  0  0  0  0
   -1.6080  127.6050   49.5560 O   0  0  0  0  0  0  0  0  0  0  0  0
   -0.0920  126.1850   50.5280 C   0  0  1  0  0  0  0  0  0  0  0  0
   -0.5850  126.9020   51.7410 O   0  0  0  0  0  0  0  0  0  0  0  0
 19 18  1  0
 18 17  1  0
 17 16  1  0
 16 14  1  0
 14 15  2  0
 13 14  1  6
 13 12  1  0
 13 20  1  0
 12 11  1  0
 20 21  1  1
 20 22  1  0
 22 23  1  1
 22 11  1  0
 11 10  1  6
 10  9  1  0
 10  6  1  0
  9  8  2  0
  8  7  1  0
  7  6  2  0
  7  2  1  0
  6  5  1  0
  5  4  2  0
  4  3  1  0
  3  2  2  0
  2  1  1  0
M  END
$$$$
