
     RDKit          3D

 23 25  0  0  0  0  0  0  0  0999 V2000
   70.3167  211.6113   48.6220 N   0  0  0  0  0  0  0  0  0  0  0  0
   69.2869  211.6499   49.6707 C   0  0  0  0  0  0  0  0  0  0  0  0
   69.6906  211.7460   50.9719 N   0  0  0  0  0  0  0  0  0  0  0  0
   68.7622  211.8403   51.9916 C   0  0  0  0  0  0  0  0  0  0  0  0
   67.4467  211.8793   51.7744 N   0  0  0  0  0  0  0  0  0  0  0  0
   67.0366  211.8277   50.4094 C   0  0  0  0  0  0  0  0  0  0  0  0
   67.9536  211.6607   49.3558 C   0  0  0  0  0  0  0  0  0  0  0  0
   67.2037  211.4507   48.2306 N   0  0  0  0  0  0  0  0  0  0  0  0
   65.8743  211.4752   48.5705 C   0  0  0  0  0  0  0  0  0  0  0  0
   65.7705  211.8461   49.8744 N   0  0  0  0  0  0  0  0  0  0  0  0
   64.6164  212.4238   50.5499 C   0  0  2  0  0  0  0  0  0  0  0  0
   63.5127  211.9211   50.1334 O   0  0  0  0  0  0  0  0  0  0  0  0
   62.6072  213.1022   49.4596 C   0  0  2  0  0  0  0  0  0  0  0  0
   61.8158  212.5096   48.3872 C   0  0  0  0  0  0  0  0  0  0  0  0
   62.2683  212.2623   47.2862 O   0  0  0  0  0  0  0  0  0  0  0  0
   60.4108  212.3017   48.6831 N   0  0  0  0  0  0  0  0  0  0  0  0
   59.4381  213.2336   48.1539 C   0  0  0  0  0  0  0  0  0  0  0  0
   59.1165  212.7744   46.6977 C   0  0  0  0  0  0  0  0  0  0  0  0
   60.2859  212.9858   45.8797 N   0  0  0  0  0  0  0  0  0  0  0  0
   63.4844  213.9926   49.0463 C   0  0  1  0  0  0  0  0  0  0  0  0
   62.9485  215.3252   48.8747 O   0  0  0  0  0  0  0  0  0  0  0  0
   64.5598  213.9600   50.2092 C   0  0  1  0  0  0  0  0  0  0  0  0
   64.0756  214.6989   51.2797 O   0  0  0  0  0  0  0  0  0  0  0  0
 19 18  1  0
 18 17  1  0
 17 16  1  0
 16 14  1  0
 14 15  2  0
 13 14  1  6
 13 12  1  0
 13 20  1  0
 12 11  1  0
 20 21  1  1
 20 22  1  0
 22 23  1  1
 22 11  1  0
 11 10  1  6
 10  9  4  0
 10  6  4  0
  9  8  4  0
  8  7  4  0
  7  6  4  0
  7  2  4  0
  6  5  4  0
  5  4  4  0
  4  3  4  0
  3  2  4  0
  2  1  1  0
M  CHG  1  19   1
M  END
$$$$
