
     RDKit          3D

113120  0  0  0  0  0  0  0  0999 V2000
   -2.2565   -2.6093   31.7253 H   0  0  0  0  0  0  0  0  0  0  0  0
   -1.2420   -2.5170   31.7760 N   0  0  0  0  0  0  0  0  0  0  0  0
   -0.6210   -2.6220   32.9510 C   0  0  0  0  0  0  0  0  0  0  0  0
    0.7060   -2.4970   33.0090 N   0  0  0  0  0  0  0  0  0  0  0  0
   -1.3190   -2.8480   34.0670 N   0  0  0  0  0  0  0  0  0  0  0  0
   -2.7780   -3.0050   34.1270 C   0  0  0  0  0  0  0  0  0  0  0  0
   -3.2140   -4.3370   34.7820 C   0  0  0  0  0  0  0  0  0  0  0  0
   -2.9610   -4.3180   36.2750 C   0  0  0  0  0  0  0  0  0  0  0  0
   -3.5100   -5.4730   37.1220 C   0  0  2  0  0  0  0  0  0  0  0  0
   -2.5820   -5.7240   38.2230 N   0  0  0  0  0  0  0  0  0  0  0  0
   -2.9280   -6.4480   39.2830 C   0  0  0  0  0  0  0  0  0  0  0  0
   -4.0470   -6.9440   39.4230 O   0  0  0  0  0  0  0  0  0  0  0  0
   -1.8580   -6.6310   40.3440 C   0  0  2  0  0  0  0  0  0  0  0  0
   -0.7240   -5.7960   39.7980 O   0  0  0  0  0  0  0  0  0  0  0  0
   -0.5690   -6.0500   40.0140 N   0  0  0  0  0  0  0  0  0  0  0  0
   -0.1740   -4.8380   40.3450 C   0  0  0  0  0  0  0  0  0  0  0  0
   -0.8190   -4.1880   41.1700 O   0  0  0  0  0  0  0  0  0  0  0  0
    1.2720   -4.4660   40.0090 C   0  0  2  0  0  0  0  0  0  0  0  0
    1.3340   -3.0930   39.3470 C   0  0  0  0  0  0  0  0  0  0  0  0
    0.2240   -2.8850   38.3430 C   0  0  0  0  0  0  0  0  0  0  0  0
   -0.3380   -1.7700   38.3150 O   0  0  0  0  0  0  0  0  0  0  0  0
   -0.0850   -3.8330   37.5820 O   0  0  0  0  0  0  0  0  0  0  0  0
    1.8710   -5.4760   39.1470 N   0  0  0  0  0  0  0  0  0  0  0  0
    2.4520   -6.5370   39.6900 C   0  0  0  0  0  0  0  0  0  0  0  0
    2.4800   -6.7050   40.9150 O   0  0  0  0  0  0  0  0  0  0  0  0
    3.1000   -7.5750   38.7880 C   0  0  2  0  0  0  0  0  0  0  0  0
    4.6040   -7.3100   38.6280 C   0  0  0  0  0  0  0  0  0  0  0  0
    4.9310   -7.8410   37.2960 C   0  0  0  0  0  0  0  0  0  0  0  0
    3.7270   -7.5450   36.4300 C   0  0  0  0  0  0  0  0  0  0  0  0
    2.6140   -7.5750   37.3960 N   0  0  0  0  0  0  0  0  0  0  0  0
    1.3310   -7.8340   37.1350 C   0  0  0  0  0  0  0  0  0  0  0  0
    0.4900   -7.9250   38.0390 O   0  0  0  0  0  0  0  0  0  0  0  0
    0.9380   -8.0440   35.6810 C   0  0  2  0  0  0  0  0  0  0  0  0
    0.8120   -6.6970   34.9520 C   0  0  0  0  0  0  0  0  0  0  0  0
    0.7540   -6.8300   33.4490 C   0  0  0  0  0  0  0  0  0  0  0  0
    1.9080   -7.0730   32.7190 C   0  0  0  0  0  0  0  0  0  0  0  0
    1.8640   -7.1950   31.3340 C   0  0  0  0  0  0  0  0  0  0  0  0
    0.6530   -7.0880   30.6700 C   0  0  0  0  0  0  0  0  0  0  0  0
   -0.5080   -6.8580   31.3880 C   0  0  0  0  0  0  0  0  0  0  0  0
   -0.4520   -6.7280   32.7720 C   0  0  0  0  0  0  0  0  0  0  0  0
   -0.3090   -8.7860   35.5930 N   0  0  0  0  0  0  0  0  0  0  0  0
   -0.4430   -9.8910   34.8730 C   0  0  0  0  0  0  0  0  0  0  0  0
    0.5040  -10.4560   34.3200 O   0  0  0  0  0  0  0  0  0  0  0  0
   -1.8550  -10.4570   34.7880 C   0  0  2  0  0  0  0  0  0  0  0  0
   -2.0840  -11.4640   35.9190 C   0  0  0  0  0  0  0  0  0  0  0  0
   -3.8260  -11.9030   36.0660 S   0  0  0  0  0  0  0  0  0  0  0  0
   -4.5790  -10.4010   37.2500 S   0  0  0  0  0  0  0  0  0  0  0  0
   -5.8430   -9.5190   36.2440 C   0  0  0  0  0  0  0  0  0  0  0  0
   -5.3010   -8.3770   35.3660 C   0  0  2  0  0  0  0  0  0  0  0  0
   -4.9720   -7.1820   36.1450 N   0  0  0  0  0  0  0  0  0  0  0  0
   -3.7120   -6.7570   36.3110 C   0  0  0  0  0  0  0  0  0  0  0  0
   -2.7410   -7.3900   35.8890 O   0  0  0  0  0  0  0  0  0  0  0  0
   -6.3390   -7.9980   34.3190 C   0  0  0  0  0  0  0  0  0  0  0  0
   -7.4150   -7.5040   34.6700 O   0  0  0  0  0  0  0  0  0  0  0  0
   -6.0070   -8.2120   33.0430 N   0  0  0  0  0  0  0  0  0  0  0  0
   -6.9640   -8.0290   31.9570 C   0  0  1  0  0  0  0  0  0  0  0  0
   -6.2330   -7.8550   30.6180 C   0  0  0  0  0  0  0  0  0  0  0  0
   -5.5400   -6.5170   30.5570 C   0  0  0  0  0  0  0  0  0  0  0  0
   -4.3060   -6.3190   31.1750 C   0  0  0  0  0  0  0  0  0  0  0  0
   -3.6950   -5.0870   31.1600 C   0  0  0  0  0  0  0  0  0  0  0  0
   -4.3150   -4.0240   30.5410 C   0  0  0  0  0  0  0  0  0  0  0  0
   -3.7070   -2.7930   30.5170 O   0  0  0  0  0  0  0  0  0  0  0  0
   -5.5340   -4.1900   29.9260 C   0  0  0  0  0  0  0  0  0  0  0  0
   -6.1490   -5.4270   29.9550 C   0  0  0  0  0  0  0  0  0  0  0  0
   -7.9030   -9.2200   31.9200 C   0  0  0  0  0  0  0  0  0  0  0  0
   -7.4700  -10.3690   32.0290 O   0  0  0  0  0  0  0  0  0  0  0  0
   -9.1970   -8.9420   31.7650 N   0  0  0  0  0  0  0  0  0  0  0  0
  -10.2370   -9.9110   32.1080 C   0  0  1  0  0  0  0  0  0  0  0  0
  -11.4610   -9.1630   32.6270 C   0  0  0  0  0  0  0  0  0  0  0  0
  -11.2160   -8.5650   34.0290 C   0  0  0  0  0  0  0  0  0  0  0  0
  -12.2840   -7.5580   34.4580 C   0  0  0  0  0  0  0  0  0  0  0  0
  -11.9700   -6.9910   35.8570 C   0  0  0  0  0  0  0  0  0  0  0  0
  -12.9010   -5.8820   36.2590 N   0  0  0  0  0  0  0  0  0  0  0  0
  -10.6000  -10.8370   30.9520 C   0  0  0  0  0  0  0  0  0  0  0  0
  -11.7700  -11.2050   30.7810 O   0  0  0  0  0  0  0  0  0  0  0  0
   -9.6200  -11.2160   30.1370 N   0  0  0  0  0  0  0  0  0  0  0  0
   -9.8280  -12.2820   29.1740 C   0  0  1  0  0  0  0  0  0  0  0  0
   -8.7890  -12.2030   28.0550 C   0  0  0  0  0  0  0  0  0  0  0  0
   -7.4620  -12.2370   28.5770 O   0  0  0  0  0  0  0  0  0  0  0  0
   -9.7660  -13.6370   29.8820 C   0  0  0  0  0  0  0  0  0  0  0  0
   -9.4410  -13.7340   31.0710 O   0  0  0  0  0  0  0  0  0  0  0  0
  -10.0850  -14.6910   29.1410 N   0  0  0  0  0  0  0  0  0  0  0  0
   -9.9800  -16.0540   29.6580 C   0  0  1  0  0  0  0  0  0  0  0  0
  -11.3530  -16.7270   29.7060 C   0  0  0  0  0  0  0  0  0  0  0  0
  -11.3560  -18.0760   30.4050 C   0  0  0  0  0  0  0  0  0  0  0  0
  -12.7680  -18.5310   30.7350 C   0  0  0  0  0  0  0  0  0  0  0  0
  -12.8080  -20.0260   31.0060 C   0  0  0  0  0  0  0  0  0  0  0  0
  -11.9370  -20.4120   32.1580 N   0  0  0  0  0  0  0  0  0  0  0  0
   -9.0190  -16.8460   28.7860 C   0  0  0  0  0  0  0  0  0  0  0  0
   -9.3500  -17.1480   27.6240 O   0  0  0  0  0  0  0  0  0  0  0  0
   -7.8070  -17.1800   29.2610 N   0  0  0  0  0  0  0  0  0  0  0  0
   -6.8320  -17.9130   28.4340 C   0  0  0  0  0  0  0  0  0  0  0  0
   -5.5740  -17.9070   29.2800 C   0  0  0  0  0  0  0  0  0  0  0  0
   -6.0260  -17.7210   30.6900 C   0  0  0  0  0  0  0  0  0  0  0  0
   -7.2510  -16.8110   30.5660 C   0  0  1  0  0  0  0  0  0  0  0  0
   -6.8580  -15.3340   30.6170 C   0  0  0  0  0  0  0  0  0  0  0  0
   -6.6930  -14.7000   29.5670 O   0  0  0  0  0  0  0  0  0  0  0  0
   -6.7650  -14.7790   31.8190 N   0  0  0  0  0  0  0  0  0  0  0  0
   -7.0770  -15.3870   33.1260 C   0  0  0  0  0  0  0  0  0  0  0  0
   -6.5460  -14.3650   34.1050 C   0  0  0  0  0  0  0  0  0  0  0  0
   -6.7840  -13.0630   33.4120 C   0  0  0  0  0  0  0  0  0  0  0  0
   -6.4200  -13.3660   31.9550 C   0  0  1  0  0  0  0  0  0  0  0  0
   -4.9390  -13.1320   31.7020 C   0  0  0  0  0  0  0  0  0  0  0  0
   -4.1180  -14.0530   31.7100 O   0  0  0  0  0  0  0  0  0  0  0  0
   -4.6060  -11.8720   31.4550 N   0  0  0  0  0  0  0  0  0  0  0  0
   -3.2170  -11.4330   31.3670 C   0  0  1  0  0  0  0  0  0  0  0  0
   -2.9370  -10.6480   30.0780 C   0  0  1  0  0  0  0  0  0  0  0  0
   -1.4470  -10.3710   29.9540 C   0  0  0  0  0  0  0  0  0  0  0  0
   -3.4660  -11.4050   28.8520 C   0  0  0  0  0  0  0  0  0  0  0  0
   -3.7160  -10.5170   27.6230 C   0  0  0  0  0  0  0  0  0  0  0  0
   -2.9530  -10.5880   32.6050 C   0  0  0  0  0  0  0  0  0  0  0  0
   -3.5330   -9.5060   32.7580 O   0  0  0  0  0  0  0  0  0  0  0  0
   -2.0910  -11.0800   33.4960 N   0  0  0  0  0  0  0  0  0  0  0  0
 15 13  1  0
 15 16  1  0
 15 14  1  0
 13 11  1  0
 13 14  1  1
 11 12  2  0
 11 10  1  0
 10  9  1  0
  9 51  1  0
  9  8  1  6
 51 52  2  0
 51 50  1  0
  8  7  1  0
  7  6  1  0
  6  5  1  0
  5  3  1  0
  3  4  1  0
  3  2  2  0
 49 50  1  1
 49 53  1  0
 49 48  1  0
 53 54  2  0
 53 55  1  0
 48 47  1  0
 47 46  1  0
 55 56  1  0
 56 65  1  0
 56 57  1  6
 65 66  2  0
 65 67  1  0
 57 58  1  0
 58 59  2  0
 58 64  1  0
 59 60  1  0
 64 63  2  0
 60 61  2  0
 63 61  1  0
 61 62  1  0
 67 68  1  0
 68 74  1  0
 68 69  1  6
 74 75  2  0
 74 76  1  0
 69 70  1  0
 70 71  1  0
 71 72  1  0
 72 73  1  0
 76 77  1  0
 77 80  1  0
 77 78  1  6
 80 81  2  0
 80 82  1  0
 78 79  1  0
 82 83  1  0
 83 89  1  0
 83 84  1  6
 89 90  2  0
 89 91  1  0
 84 85  1  0
 85 86  1  0
 86 87  1  0
 87 88  1  0
 91 95  1  0
 91 92  1  0
 95 96  1  0
 95 94  1  6
 96 97  2  0
 96 98  1  0
 94 93  1  0
 93 92  1  0
 98102  1  0
 98 99  1  0
102103  1  0
102101  1  1
103104  2  0
103105  1  0
101100  1  0
100 99  1  0
106105  1  6
106111  1  0
106107  1  0
111112  2  0
111113  1  0
107109  1  0
107108  1  6
109110  1  0
 44113  1  6
 44 42  1  0
 44 45  1  0
 42 43  2  0
 42 41  1  0
 45 46  1  0
 41 33  1  0
 33 31  1  0
 33 34  1  1
 31 32  2  0
 31 30  1  0
 34 35  1  0
 35 36  2  0
 35 40  1  0
 36 37  1  0
 40 39  2  0
 37 38  2  0
 39 38  1  0
 30 26  1  0
 30 29  1  0
 26 24  1  0
 26 27  1  6
 24 25  2  0
 24 23  1  0
 27 28  1  0
 28 29  1  0
 23 18  1  0
 18 16  1  0
 18 19  1  6
 16 17  2  0
 19 20  1  0
 20 22  1  0
 20 21  2  0
  2  1  1  0
M  CHG  2  73   1  88   1
M  END
$$$$
