
     RDKit          3D

111117  0  0  0  0  0  0  0  0999 V2000
   -4.5065   13.8031   32.8751 H   0  0  0  0  0  0  0  0  0  0  0  0
   -5.4798   14.1410   32.3698 N   0  0  0  0  0  0  0  0  0  0  0  0
   -5.4089   15.4788   32.1666 C   0  0  0  0  0  0  0  0  0  0  0  0
   -4.3053   16.1505   32.6055 N   0  0  0  0  0  0  0  0  0  0  0  0
   -6.2110   16.0354   31.2970 N   0  0  0  0  0  0  0  0  0  0  0  0
   -5.9481   16.1809   29.8669 C   0  0  0  0  0  0  0  0  0  0  0  0
   -4.8133   17.1217   29.5481 C   0  0  0  0  0  0  0  0  0  0  0  0
   -5.1972   18.1830   28.5398 C   0  0  0  0  0  0  0  0  0  0  0  0
   -5.8603   19.4421   29.1391 C   0  0  1  0  0  0  0  0  0  0  0  0
   -7.2605   19.1747   29.5086 N   0  0  0  0  0  0  0  0  0  0  0  0
   -7.5365   18.0507   30.1502 C   0  0  0  0  0  0  0  0  0  0  0  0
   -6.6711   17.1840   30.4484 O   0  0  0  0  0  0  0  0  0  0  0  0
   -8.9870   17.8257   30.5488 C   0  0  2  0  0  0  0  0  0  0  0  0
   -9.9345   17.9534   29.5630 O   0  0  0  0  0  0  0  0  0  0  0  0
   -9.8813   18.9515   30.3708 N   0  0  0  0  0  0  0  0  0  0  0  0
  -10.6860   18.8880   29.3042 C   0  0  0  0  0  0  0  0  0  0  0  0
  -10.7847   17.8667   28.6019 O   0  0  0  0  0  0  0  0  0  0  0  0
  -11.7120   20.0194   29.1834 C   0  0  1  0  0  0  0  0  0  0  0  0
  -13.1372   19.4554   29.1641 C   0  0  0  0  0  0  0  0  0  0  0  0
  -14.2154   20.4732   28.7617 C   0  0  0  0  0  0  0  0  0  0  0  0
  -13.9776   21.6437   29.1607 O   0  0  0  0  0  0  0  0  0  0  0  0
  -14.9440   20.2468   27.8193 O   0  0  0  0  0  0  0  0  0  0  0  0
  -11.5664   21.0110   30.2317 N   0  0  0  0  0  0  0  0  0  0  0  0
  -12.1303   20.8339   31.4418 C   0  0  0  0  0  0  0  0  0  0  0  0
  -12.9466   19.9084   31.6560 O   0  0  0  0  0  0  0  0  0  0  0  0
  -11.9298   21.9343   32.4888 C   0  0  2  0  0  0  0  0  0  0  0  0
  -13.0999   22.9740   32.3874 C   0  0  0  0  0  0  0  0  0  0  0  0
  -12.4508   24.2190   32.8727 C   0  0  0  0  0  0  0  0  0  0  0  0
  -11.0491   24.1832   32.3326 C   0  0  0  0  0  0  0  0  0  0  0  0
  -10.7466   22.7535   32.3177 N   0  0  0  0  0  0  0  0  0  0  0  0
   -9.5314   22.1795   32.3171 C   0  0  0  0  0  0  0  0  0  0  0  0
   -9.4120   20.9672   32.3637 O   0  0  0  0  0  0  0  0  0  0  0  0
   -8.3124   23.1072   32.2141 C   0  0  2  0  0  0  0  0  0  0  0  0
   -8.0392   23.4181   30.7433 C   0  0  0  0  0  0  0  0  0  0  0  0
   -9.2822   23.7183   29.9504 C   0  0  0  0  0  0  0  0  0  0  0  0
   -9.7110   22.8446   28.9560 C   0  0  0  0  0  0  0  0  0  0  0  0
   -9.9966   23.2851   27.6695 C   0  0  0  0  0  0  0  0  0  0  0  0
  -10.0888   24.6330   27.4475 C   0  0  0  0  0  0  0  0  0  0  0  0
   -9.8869   25.5370   28.4837 C   0  0  0  0  0  0  0  0  0  0  0  0
   -9.6402   25.0654   29.7533 C   0  0  0  0  0  0  0  0  0  0  0  0
   -7.1400   22.4639   32.8148 N   0  0  0  0  0  0  0  0  0  0  0  0
   -6.4116   23.0173   33.7550 C   0  0  0  0  0  0  0  0  0  0  0  0
   -6.7075   23.0310   34.9654 O   0  0  0  0  0  0  0  0  0  0  0  0
   -5.6323   20.8862   34.6179 C   0  0  1  0  0  0  0  0  0  0  0  0
   -5.5387   21.1538   35.0924 C   0  0  0  0  0  0  0  0  0  0  0  0
   -4.2415   19.8908   35.4136 S   0  0  0  0  0  0  0  0  0  0  0  0
   -3.3984   20.1517   33.5887 S   0  0  0  0  0  0  0  0  0  0  0  0
   -2.8765   18.6276   32.8071 C   0  0  0  0  0  0  0  0  0  0  0  0
   -3.4316   18.6937   31.7937 C   0  0  1  0  0  0  0  0  0  0  0  0
   -3.8942   19.2630   30.5702 N   0  0  0  0  0  0  0  0  0  0  0  0
   -5.1041   19.8100   30.4035 C   0  0  0  0  0  0  0  0  0  0  0  0
   -5.5101   20.7431   31.1564 O   0  0  0  0  0  0  0  0  0  0  0  0
   -4.0282   17.3220   31.0382 C   0  0  0  0  0  0  0  0  0  0  0  0
   -3.2733   17.0320   30.1206 O   0  0  0  0  0  0  0  0  0  0  0  0
   -5.1435   16.6453   31.3718 N   0  0  0  0  0  0  0  0  0  0  0  0
   -5.2343   15.2697   30.9400 C   0  0  2  0  0  0  0  0  0  0  0  0
   -6.6908   14.7780   31.1796 C   0  0  2  0  0  0  0  0  0  0  0  0
   -7.2410   14.1031   29.9387 C   0  0  0  0  0  0  0  0  0  0  0  0
   -7.5232   15.8172   31.6541 O   0  0  0  0  0  0  0  0  0  0  0  0
   -4.2816   14.4039   31.7178 C   0  0  0  0  0  0  0  0  0  0  0  0
   -3.5684   14.8852   32.6146 O   0  0  0  0  0  0  0  0  0  0  0  0
   -4.0808   13.1881   31.1913 N   0  0  0  0  0  0  0  0  0  0  0  0
   -3.0999   12.2461   31.7660 C   0  0  2  0  0  0  0  0  0  0  0  0
   -2.2006   11.6809   30.6160 C   0  0  0  0  0  0  0  0  0  0  0  0
   -0.7247   12.1552   30.9179 C   0  0  0  0  0  0  0  0  0  0  0  0
    0.2837   11.3062   30.3508 C   0  0  0  0  0  0  0  0  0  0  0  0
   -0.3378    9.9599   29.9612 C   0  0  0  0  0  0  0  0  0  0  0  0
    0.6428    8.8814   30.1355 N   0  0  0  0  0  0  0  0  0  0  0  0
   -3.7726   11.1938   32.6210 C   0  0  0  0  0  0  0  0  0  0  0  0
   -3.3597   10.0328   32.6689 O   0  0  0  0  0  0  0  0  0  0  0  0
   -4.8685   11.5452   33.2772 N   0  0  0  0  0  0  0  0  0  0  0  0
   -5.5358   10.6760   34.2109 C   0  0  2  0  0  0  0  0  0  0  0  0
   -7.0349   10.9808   34.1889 C   0  0  0  0  0  0  0  0  0  0  0  0
   -7.6310   10.8845   35.5067 O   0  0  0  0  0  0  0  0  0  0  0  0
   -4.9818   10.9011   35.6309 C   0  0  0  0  0  0  0  0  0  0  0  0
   -4.1261   11.7393   35.8643 O   0  0  0  0  0  0  0  0  0  0  0  0
   -5.3278    9.9738   36.5232 N   0  0  0  0  0  0  0  0  0  0  0  0
   -5.0718   10.1423   37.9622 C   0  0  2  0  0  0  0  0  0  0  0  0
   -4.3551    8.8892   38.4880 C   0  0  0  0  0  0  0  0  0  0  0  0
   -2.8268    8.9892   38.3088 C   0  0  0  0  0  0  0  0  0  0  0  0
   -2.0546    8.8774   39.6223 C   0  0  0  0  0  0  0  0  0  0  0  0
   -0.8484    8.0728   39.4389 N   0  0  0  0  0  0  0  0  0  0  0  0
   -0.8178    6.7385   39.4933 C   0  0  0  0  0  0  0  0  0  0  0  0
    0.3668    6.0806   39.4829 N   0  0  0  0  0  0  0  0  0  0  0  0
   -1.9279    6.0209   39.4111 N   0  0  0  0  0  0  0  0  0  0  0  0
   -2.8080    6.7734   39.9806 H   0  0  0  0  0  0  0  0  0  0  0  0
   -6.4025   10.3524   38.6735 C   0  0  0  0  0  0  0  0  0  0  0  0
   -7.1059    9.3513   38.8738 O   0  0  0  0  0  0  0  0  0  0  0  0
   -6.7197   11.5442   39.1617 N   0  0  0  0  0  0  0  0  0  0  0  0
   -8.0112   11.8100   39.8806 C   0  0  0  0  0  0  0  0  0  0  0  0
   -7.9576   13.2565   40.2321 C   0  0  0  0  0  0  0  0  0  0  0  0
   -6.4845   13.6269   40.2012 C   0  0  0  0  0  0  0  0  0  0  0  0
   -5.9254   12.7828   39.0691 C   0  0  2  0  0  0  0  0  0  0  0  0
   -6.1197   13.4592   37.7217 C   0  0  0  0  0  0  0  0  0  0  0  0
   -6.9336   12.9739   36.8995 O   0  0  0  0  0  0  0  0  0  0  0  0
   -5.2035   14.3796   37.3539 N   0  0  0  0  0  0  0  0  0  0  0  0
   -3.9067   13.2931   36.6169 C   0  0  0  0  0  0  0  0  0  0  0  0
   -4.9166   12.7856   35.6976 C   0  0  0  0  0  0  0  0  0  0  0  0
   -5.6299   13.9562   35.1136 C   0  0  0  0  0  0  0  0  0  0  0  0
   -5.3719   15.1000   36.0792 C   0  0  1  0  0  0  0  0  0  0  0  0
   -6.5260   16.0723   36.1303 C   0  0  0  0  0  0  0  0  0  0  0  0
   -6.9560   16.5325   37.2046 O   0  0  0  0  0  0  0  0  0  0  0  0
   -7.1272   16.2735   34.9713 N   0  0  0  0  0  0  0  0  0  0  0  0
   -8.1442   17.3232   34.7637 C   0  0  2  0  0  0  0  0  0  0  0  0
   -9.2748   16.7464   33.9105 C   0  0  2  0  0  0  0  0  0  0  0  0
   -9.0569   15.3301   33.5236 C   0  0  0  0  0  0  0  0  0  0  0  0
   -9.5060   17.6178   32.6423 C   0  0  0  0  0  0  0  0  0  0  0  0
  -10.8755   17.5049   32.0491 C   0  0  0  0  0  0  0  0  0  0  0  0
   -7.4193   18.4370   34.0210 C   0  0  0  0  0  0  0  0  0  0  0  0
   -6.8207   18.2291   32.9746 O   0  0  0  0  0  0  0  0  0  0  0  0
   -7.4158   19.6350   34.6328 N   0  0  0  0  0  0  0  0  0  0  0  0
 15 13  1  0
 15 16  1  0
 15 14  1  0
 13 11  1  0
 13 14  1  6
 11 12  2  0
 11 10  1  0
 10  9  1  0
  9 51  1  0
  9  8  1  6
 51 52  2  0
 51 50  1  0
  8  7  1  0
  7  6  1  0
  6  5  1  0
  5  3  1  0
  3  4  1  0
  3  2  2  0
 49 50  1  1
 49 53  1  0
 49 48  1  0
 53 54  2  0
 53 55  1  0
 48 47  1  0
 47 46  1  0
 56 55  1  6
 56 60  1  0
 56 57  1  0
 60 61  2  0
 60 62  1  0
 57 59  1  0
 57 58  1  1
 62 63  1  0
 63 69  1  0
 63 64  1  1
 69 70  2  0
 69 71  1  0
 64 65  1  0
 65 66  1  0
 66 67  1  0
 67 68  1  0
 71 72  1  0
 72 75  1  0
 72 73  1  6
 75 76  2  0
 75 77  1  0
 73 74  1  0
 77 78  1  0
 78 87  1  0
 78 79  1  6
 87 88  2  0
 87 89  1  0
 79 80  1  0
 80 81  1  0
 81 82  1  0
 82 83  1  0
 83 84  1  0
 83 85  2  0
 89 93  1  0
 89 90  1  0
 93 94  1  0
 93 92  1  6
 94 95  2  0
 94 96  1  0
 92 91  1  0
 91 90  1  0
 96100  1  0
 96 97  1  0
100101  1  0
100 99  1  6
101102  2  0
101103  1  0
 99 98  1  0
 98 97  1  0
104103  1  1
104109  1  0
104105  1  0
109110  2  0
109111  1  0
105107  1  0
105106  1  1
107108  1  0
 44111  1  6
 44 42  1  0
 44 45  1  0
 42 43  2  0
 42 41  1  0
 45 46  1  0
 41 33  1  0
 33 31  1  0
 33 34  1  6
 31 32  2  0
 31 30  1  0
 34 35  1  0
 35 36  4  0
 35 40  4  0
 36 37  4  0
 40 39  4  0
 37 38  4  0
 39 38  4  0
 30 26  1  0
 30 29  1  0
 26 24  1  0
 26 27  1  6
 24 25  2  0
 24 23  1  0
 27 28  1  0
 28 29  1  0
 23 18  1  0
 18 16  1  0
 18 19  1  6
 16 17  2  0
 19 20  1  0
 20 22  1  0
 20 21  2  0
  2  1  1  0
 85 86  1  0
M  CHG  1  68   1
M  END
$$$$
