
     RDKit          3D

116123  0  0  0  0  0  0  0  0999 V2000
   -5.5087   94.4940    1.0881 H   0  0  0  0  0  0  0  0  0  0  0  0
   -5.7890   94.1800    0.1590 N   0  0  0  0  0  0  0  0  0  0  0  0
   -7.0740   94.0030   -0.1220 C   0  0  0  0  0  0  0  0  0  0  0  0
   -7.4590   93.5920   -1.3320 N   0  0  0  0  0  0  0  0  0  0  0  0
   -7.9770   94.2380    0.8130 N   0  0  0  0  0  0  0  0  0  0  0  0
   -7.6620   94.6720    2.1610 C   0  0  0  0  0  0  0  0  0  0  0  0
   -8.5520   93.9270    3.1490 C   0  0  0  0  0  0  0  0  0  0  0  0
   -8.6730   94.7140    4.4140 C   0  0  0  0  0  0  0  0  0  0  0  0
   -9.2490   93.9670    5.6160 C   0  0  2  0  0  0  0  0  0  0  0  0
  -10.6770   93.7200    5.4310 N   0  0  0  0  0  0  0  0  0  0  0  0
  -11.4070   93.0990    6.3610 C   0  0  0  0  0  0  0  0  0  0  0  0
  -10.9300   92.6340    7.4130 O   0  0  0  0  0  0  0  0  0  0  0  0
  -12.8960   92.9700    6.0660 C   0  0  2  0  0  0  0  0  0  0  0  0
  -13.6630   93.5460    4.7650 O   0  0  0  0  0  0  0  0  0  0  0  0
  -13.3460   93.6820    4.8830 N   0  0  0  0  0  0  0  0  0  0  0  0
  -13.6540   93.5370    3.5300 C   0  0  0  0  0  0  0  0  0  0  0  0
  -13.1110   92.5950    2.9440 O   0  0  0  0  0  0  0  0  0  0  0  0
  -14.3070   94.6770    2.7370 C   0  0  2  0  0  0  0  0  0  0  0  0
  -13.3690   95.1370    1.5990 C   0  0  0  0  0  0  0  0  0  0  0  0
  -12.0420   95.7320    2.1030 C   0  0  0  0  0  0  0  0  0  0  0  0
  -11.4610   96.6250    1.3060 N   0  0  0  0  0  0  0  0  0  0  0  0
  -11.5480   95.3880    3.1780 O   0  0  0  0  0  0  0  0  0  0  0  0
  -14.6820   95.8060    3.5970 N   0  0  0  0  0  0  0  0  0  0  0  0
  -15.5810   95.6820    4.5770 C   0  0  0  0  0  0  0  0  0  0  0  0
  -16.1520   94.6110    4.8170 O   0  0  0  0  0  0  0  0  0  0  0  0
  -15.8970   96.8960    5.4410 C   0  0  2  0  0  0  0  0  0  0  0  0
  -17.0240   97.7470    4.8310 C   0  0  0  0  0  0  0  0  0  0  0  0
  -16.6340   99.1670    5.0970 C   0  0  0  0  0  0  0  0  0  0  0  0
  -15.1370   99.1780    5.0350 C   0  0  0  0  0  0  0  0  0  0  0  0
  -14.7770   97.8450    5.5530 N   0  0  0  0  0  0  0  0  0  0  0  0
  -13.6600   97.4740    6.1960 C   0  0  0  0  0  0  0  0  0  0  0  0
  -13.5800   96.3900    6.7890 O   0  0  0  0  0  0  0  0  0  0  0  0
  -12.4910   98.4450    6.2050 C   0  0  2  0  0  0  0  0  0  0  0  0
  -11.7750   98.4470    4.8470 C   0  0  0  0  0  0  0  0  0  0  0  0
  -10.6650   99.4570    4.7580 C   0  0  0  0  0  0  0  0  0  0  0  0
   -9.3790   99.1320    5.1650 C   0  0  0  0  0  0  0  0  0  0  0  0
   -8.3550  100.0660    5.0960 C   0  0  0  0  0  0  0  0  0  0  0  0
   -8.6130  101.3400    4.6230 C   0  0  0  0  0  0  0  0  0  0  0  0
   -9.8920  101.6780    4.2170 C   0  0  0  0  0  0  0  0  0  0  0  0
  -10.9120  100.7390    4.2870 C   0  0  0  0  0  0  0  0  0  0  0  0
  -11.5720   98.0790    7.2710 N   0  0  0  0  0  0  0  0  0  0  0  0
  -11.0020   98.9660    8.0760 C   0  0  0  0  0  0  0  0  0  0  0  0
  -11.2840  100.1700    8.0680 O   0  0  0  0  0  0  0  0  0  0  0  0
   -9.9690   98.4010    9.0420 C   0  0  2  0  0  0  0  0  0  0  0  0
  -10.6740   97.8290   10.2720 C   0  0  0  0  0  0  0  0  0  0  0  0
   -9.5370   96.9870   11.3940 S   0  0  0  0  0  0  0  0  0  0  0  0
   -9.5340   95.0460   10.7460 S   0  0  0  0  0  0  0  0  0  0  0  0
   -7.8540   94.6980   10.1620 C   0  0  0  0  0  0  0  0  0  0  0  0
   -7.5250   95.1960    8.7510 C   0  0  2  0  0  0  0  0  0  0  0  0
   -8.0890   94.3470    7.7100 N   0  0  0  0  0  0  0  0  0  0  0  0
   -9.0010   94.8020    6.8610 C   0  0  0  0  0  0  0  0  0  0  0  0
   -9.6100   95.8590    7.0400 O   0  0  0  0  0  0  0  0  0  0  0  0
   -6.0240   95.2340    8.5420 C   0  0  0  0  0  0  0  0  0  0  0  0
   -5.3550   94.1980    8.6280 O   0  0  0  0  0  0  0  0  0  0  0  0
   -5.5040   96.4160    8.2510 N   0  0  0  0  0  0  0  0  0  0  0  0
   -4.0670   96.6160    8.1930 C   0  0  1  0  0  0  0  0  0  0  0  0
   -3.7510   97.8800    7.4020 C   0  0  0  0  0  0  0  0  0  0  0  0
   -3.9590   97.6230    5.9220 C   0  0  0  0  0  0  0  0  0  0  0  0
   -5.2340   97.6860    5.3570 C   0  0  0  0  0  0  0  0  0  0  0  0
   -5.4370   97.4130    4.0220 C   0  0  0  0  0  0  0  0  0  0  0  0
   -4.3580   97.0550    3.2190 C   0  0  0  0  0  0  0  0  0  0  0  0
   -4.5560   96.7820    1.8830 O   0  0  0  0  0  0  0  0  0  0  0  0
   -3.0840   96.9690    3.7530 C   0  0  0  0  0  0  0  0  0  0  0  0
   -2.8910   97.2490    5.1060 C   0  0  0  0  0  0  0  0  0  0  0  0
   -3.5330   96.6800    9.6160 C   0  0  0  0  0  0  0  0  0  0  0  0
   -4.1820   97.2380   10.5050 O   0  0  0  0  0  0  0  0  0  0  0  0
   -2.3540   96.0880    9.8390 N   0  0  0  0  0  0  0  0  0  0  0  0
   -1.9850   95.6370   11.1770 C   0  0  1  0  0  0  0  0  0  0  0  0
   -1.2460   94.3020   11.0740 C   0  0  0  0  0  0  0  0  0  0  0  0
   -2.2220   93.1280   10.9720 C   0  0  0  0  0  0  0  0  0  0  0  0
   -1.5380   91.8140   10.6120 C   0  0  0  0  0  0  0  0  0  0  0  0
   -2.5810   90.7430   10.2530 C   0  0  0  0  0  0  0  0  0  0  0  0
   -1.9640   89.3980   10.1560 N   0  0  0  0  0  0  0  0  0  0  0  0
   -1.1790   96.6600   11.9890 C   0  0  0  0  0  0  0  0  0  0  0  0
   -0.3890   96.2600   12.8620 O   0  0  0  0  0  0  0  0  0  0  0  0
   -1.3640   97.9600   11.7570 N   0  0  0  0  0  0  0  0  0  0  0  0
   -0.8100   98.9600   12.6760 C   0  0  1  0  0  0  0  0  0  0  0  0
   -0.8850  100.3630   12.0660 C   0  0  0  0  0  0  0  0  0  0  0  0
   -2.2150  100.7260   11.7040 O   0  0  0  0  0  0  0  0  0  0  0  0
   -1.5530   98.9280   14.0190 C   0  0  0  0  0  0  0  0  0  0  0  0
   -2.5290   98.1900   14.2060 O   0  0  0  0  0  0  0  0  0  0  0  0
   -1.1020   99.7520   14.9620 N   0  0  0  0  0  0  0  0  0  0  0  0
   -1.8140   99.9620   16.2280 C   0  0  1  0  0  0  0  0  0  0  0  0
   -1.0220   99.4330   17.4260 C   0  0  0  0  0  0  0  0  0  0  0  0
   -1.7690   99.6020   18.7680 C   0  0  0  0  0  0  0  0  0  0  0  0
   -0.8810  100.1190   19.8860 C   0  0  0  0  0  0  0  0  0  0  0  0
   -1.5290  100.0110   21.1960 N   0  0  0  0  0  0  0  0  0  0  0  0
   -0.9280  100.2520   22.3620 C   0  0  0  0  0  0  0  0  0  0  0  0
    0.3480  100.6200   22.3950 N   0  0  0  0  0  0  0  0  0  0  0  0
   -1.6010  100.1250   23.4980 N   0  0  0  0  0  0  0  0  0  0  0  0
   -2.5809   99.8423   23.4814 H   0  0  0  0  0  0  0  0  0  0  0  0
   -2.1090  101.4470   16.4200 C   0  0  0  0  0  0  0  0  0  0  0  0
   -1.1660  102.2470   16.5710 O   0  0  0  0  0  0  0  0  0  0  0  0
   -3.3800  101.8780   16.4230 N   0  0  0  0  0  0  0  0  0  0  0  0
   -3.7220  103.2430   16.8710 C   0  0  0  0  0  0  0  0  0  0  0  0
   -5.1530  103.3890   16.4760 C   0  0  0  0  0  0  0  0  0  0  0  0
   -5.7420  102.0110   16.4310 C   0  0  0  0  0  0  0  0  0  0  0  0
   -4.5680  101.0610   16.1230 C   0  0  1  0  0  0  0  0  0  0  0  0
   -4.5960  100.5840   14.6530 C   0  0  0  0  0  0  0  0  0  0  0  0
   -3.9060  101.1760   13.8210 O   0  0  0  0  0  0  0  0  0  0  0  0
   -5.3490   99.5260   14.3510 N   0  0  0  0  0  0  0  0  0  0  0  0
   -6.1080   98.6790   15.2960 C   0  0  0  0  0  0  0  0  0  0  0  0
   -6.8110   97.6800   14.3970 C   0  0  0  0  0  0  0  0  0  0  0  0
   -6.0030   97.6140   13.1260 C   0  0  0  0  0  0  0  0  0  0  0  0
   -5.3940   99.0160   12.9710 C   0  0  1  0  0  0  0  0  0  0  0  0
   -6.2560   99.8810   12.0600 C   0  0  0  0  0  0  0  0  0  0  0  0
   -7.1390  100.6140   12.5060 O   0  0  0  0  0  0  0  0  0  0  0  0
   -5.9870   99.7740   10.7570 N   0  0  0  0  0  0  0  0  0  0  0  0
   -6.7930  100.4190    9.7200 C   0  0  1  0  0  0  0  0  0  0  0  0
   -5.9220  101.0890    8.6460 C   0  0  1  0  0  0  0  0  0  0  0  0
   -6.7690  101.9950    7.7500 C   0  0  0  0  0  0  0  0  0  0  0  0
   -4.7740  101.8730    9.2820 C   0  0  0  0  0  0  0  0  0  0  0  0
   -3.9290  102.6100    8.2670 C   0  0  0  0  0  0  0  0  0  0  0  0
   -7.6990   99.3540    9.1070 C   0  0  0  0  0  0  0  0  0  0  0  0
   -7.2340   98.4930    8.3470 O   0  0  0  0  0  0  0  0  0  0  0  0
   -8.9980   99.4220    9.4210 N   0  0  0  0  0  0  0  0  0  0  0  0
 15 13  1  0
 15 16  1  0
 15 14  1  0
 13 11  1  0
 13 14  1  6
 11 12  2  0
 11 10  1  0
 10  9  1  0
  9 51  1  0
  9  8  1  6
 51 52  2  0
 51 50  1  0
  8  7  1  0
  7  6  1  0
  6  5  1  0
  5  3  1  0
  3  2  2  0
  3  4  1  0
 49 50  1  6
 49 53  1  0
 49 48  1  0
 53 54  2  0
 53 55  1  0
 48 47  1  0
 47 46  1  0
 55 56  1  0
 56 65  1  0
 56 57  1  1
 65 66  2  0
 65 67  1  0
 57 58  1  0
 58 59  2  0
 58 64  1  0
 59 60  1  0
 64 63  2  0
 60 61  2  0
 63 61  1  0
 61 62  1  0
 67 68  1  0
 68 74  1  0
 68 69  1  6
 74 75  2  0
 74 76  1  0
 69 70  1  0
 70 71  1  0
 71 72  1  0
 72 73  1  0
 76 77  1  0
 77 80  1  0
 77 78  1  6
 80 81  2  0
 80 82  1  0
 78 79  1  0
 82 83  1  0
 83 92  1  0
 83 84  1  1
 92 93  2  0
 92 94  1  0
 84 85  1  0
 85 86  1  0
 86 87  1  0
 87 88  1  0
 88 90  2  0
 88 89  1  0
 94 98  1  0
 94 95  1  0
 98 99  1  0
 98 97  1  6
 99100  2  0
 99101  1  0
 97 96  1  0
 96 95  1  0
101105  1  0
101102  1  0
105106  1  0
105104  1  1
106107  2  0
106108  1  0
104103  1  0
103102  1  0
109108  1  1
109114  1  0
109110  1  0
114115  2  0
114116  1  0
110112  1  0
110111  1  1
112113  1  0
 44116  1  1
 44 42  1  0
 44 45  1  0
 42 43  2  0
 42 41  1  0
 45 46  1  0
 41 33  1  0
 33 31  1  0
 33 34  1  6
 31 32  2  0
 31 30  1  0
 34 35  1  0
 35 36  2  0
 35 40  1  0
 36 37  1  0
 40 39  2  0
 37 38  2  0
 39 38  1  0
 30 26  1  0
 30 29  1  0
 26 24  1  0
 26 27  1  6
 24 25  2  0
 24 23  1  0
 27 28  1  0
 28 29  1  0
 23 18  1  0
 18 16  1  0
 18 19  1  6
 16 17  2  0
 19 20  1  0
 20 22  2  0
 20 21  1  0
  2  1  1  0
 90 91  1  0
M  CHG  1  73   1
M  END
$$$$
