
     RDKit          3D

112119  0  0  0  0  0  0  0  0999 V2000
   50.6528   30.0390  107.9962 H   0  0  0  0  0  0  0  0  0  0  0  0
   50.7278   29.7834  106.7970 N   0  0  0  0  0  0  0  0  0  0  0  0
   49.8373   28.7526  106.5940 C   0  0  0  0  0  0  0  0  0  0  0  0
   48.5939   28.8793  106.9628 N   0  0  0  0  0  0  0  0  0  0  0  0
   50.1367   27.8808  105.6394 N   0  0  0  0  0  0  0  0  0  0  0  0
   49.2636   26.8384  105.1025 C   0  0  0  0  0  0  0  0  0  0  0  0
   49.8283   26.2020  103.8295 C   0  0  0  0  0  0  0  0  0  0  0  0
   48.9818   25.0164  103.3531 C   0  0  0  0  0  0  0  0  0  0  0  0
   47.5412   25.9269  102.6945 C   0  0  1  0  0  0  0  0  0  0  0  0
   46.7670   25.9925  103.9554 N   0  0  0  0  0  0  0  0  0  0  0  0
   47.3993   25.9798  105.1234 C   0  0  0  0  0  0  0  0  0  0  0  0
   48.6374   25.7402  105.2060 O   0  0  0  0  0  0  0  0  0  0  0  0
   46.5466   26.0517  106.3734 C   0  0  2  0  0  0  0  0  0  0  0  0
   45.5374   25.3017  106.1074 O   0  0  0  0  0  0  0  0  0  0  0  0
   45.2164   26.5774  106.1071 N   0  0  0  0  0  0  0  0  0  0  0  0
   44.3578   25.5788  106.1702 C   0  0  0  0  0  0  0  0  0  0  0  0
   44.5509   24.3725  106.3819 O   0  0  0  0  0  0  0  0  0  0  0  0
   42.9430   26.1686  106.2200 C   0  0  1  0  0  0  0  0  0  0  0  0
   42.2252   25.7813  107.4920 C   0  0  0  0  0  0  0  0  0  0  0  0
   41.7409   26.9861  108.3066 C   0  0  0  0  0  0  0  0  0  0  0  0
   41.4331   27.9972  107.6410 O   0  0  0  0  0  0  0  0  0  0  0  0
   41.9595   27.0532  109.5328 O   0  0  0  0  0  0  0  0  0  0  0  0
   42.9626   27.5980  106.0089 N   0  0  0  0  0  0  0  0  0  0  0  0
   43.0338   28.4515  107.0447 C   0  0  0  0  0  0  0  0  0  0  0  0
   43.2951   28.0957  108.1933 O   0  0  0  0  0  0  0  0  0  0  0  0
   42.9882   29.9467  106.7844 C   0  0  2  0  0  0  0  0  0  0  0  0
   41.5449   30.4772  106.9479 C   0  0  0  0  0  0  0  0  0  0  0  0
   41.3884   31.5381  105.8690 C   0  0  0  0  0  0  0  0  0  0  0  0
   42.2445   31.0833  104.7297 C   0  0  0  0  0  0  0  0  0  0  0  0
   43.3390   30.3248  105.4068 N   0  0  0  0  0  0  0  0  0  0  0  0
   44.5486   30.0331  104.9324 C   0  0  0  0  0  0  0  0  0  0  0  0
   45.3963   29.5928  105.6886 O   0  0  0  0  0  0  0  0  0  0  0  0
   44.9097   30.5259  103.5480 C   0  0  2  0  0  0  0  0  0  0  0  0
   44.3374   29.5812  102.4778 C   0  0  0  0  0  0  0  0  0  0  0  0
   45.3440   29.1967  101.4219 C   0  0  0  0  0  0  0  0  0  0  0  0
   46.6527   29.6519  101.4941 C   0  0  0  0  0  0  0  0  0  0  0  0
   47.6865   28.8770  101.0354 C   0  0  0  0  0  0  0  0  0  0  0  0
   47.4481   27.6747  100.4453 C   0  0  0  0  0  0  0  0  0  0  0  0
   46.1211   27.3215  100.2221 C   0  0  0  0  0  0  0  0  0  0  0  0
   45.0723   28.1216  100.6377 C   0  0  0  0  0  0  0  0  0  0  0  0
   46.3559   30.6269  103.4008 N   0  0  0  0  0  0  0  0  0  0  0  0
   46.9726   31.7329  102.9943 C   0  0  0  0  0  0  0  0  0  0  0  0
   47.6865   31.7859  101.9670 O   0  0  0  0  0  0  0  0  0  0  0  0
   49.2737   31.3264  103.7671 C   0  0  1  0  0  0  0  0  0  0  0  0
   49.1771   31.7082  104.0484 C   0  0  0  0  0  0  0  0  0  0  0  0
   50.9583   31.1937  104.0551 S   0  0  0  0  0  0  0  0  0  0  0  0
   49.8924   29.4235  102.1300 S   0  0  0  0  0  0  0  0  0  0  0  0
   51.3633   28.4889  102.3577 C   0  0  0  0  0  0  0  0  0  0  0  0
   50.5600   28.0839  101.8762 C   0  0  2  0  0  0  0  0  0  0  0  0
   49.6255   26.9893  102.0861 N   0  0  0  0  0  0  0  0  0  0  0  0
   48.3524   27.2028  102.5036 C   0  0  0  0  0  0  0  0  0  0  0  0
   47.9733   28.3086  102.9591 O   0  0  0  0  0  0  0  0  0  0  0  0
   53.7901   28.5420  102.8836 C   0  0  0  0  0  0  0  0  0  0  0  0
   52.7878   27.8094  102.7501 O   0  0  0  0  0  0  0  0  0  0  0  0
   54.2462   28.8491  104.0804 N   0  0  0  0  0  0  0  0  0  0  0  0
   55.2430   28.0407  104.7460 C   0  0  2  0  0  0  0  0  0  0  0  0
   56.3628   27.6635  103.7638 C   0  0  0  0  0  0  0  0  0  0  0  0
   57.0997   28.9190  103.2091 C   0  0  0  0  0  0  0  0  0  0  0  0
   57.3453   29.9916  104.0743 C   0  0  0  0  0  0  0  0  0  0  0  0
   57.3273   31.3003  103.6050 C   0  0  0  0  0  0  0  0  0  0  0  0
   57.1921   31.5455  102.2437 C   0  0  0  0  0  0  0  0  0  0  0  0
   57.2021   32.8495  101.7675 O   0  0  0  0  0  0  0  0  0  0  0  0
   57.1392   30.4863  101.3401 C   0  0  0  0  0  0  0  0  0  0  0  0
   57.1004   29.1806  101.8782 C   0  0  0  0  0  0  0  0  0  0  0  0
   54.5581   26.7904  105.2764 C   0  0  0  0  0  0  0  0  0  0  0  0
   53.3152   26.7596  105.4592 O   0  0  0  0  0  0  0  0  0  0  0  0
   55.2449   25.6376  105.1964 N   0  0  0  0  0  0  0  0  0  0  0  0
   54.6294   24.3201  105.3652 C   0  0  1  0  0  0  0  0  0  0  0  0
   55.2610   23.3364  104.4105 C   0  0  0  0  0  0  0  0  0  0  0  0
   54.7954   23.5827  102.9461 C   0  0  0  0  0  0  0  0  0  0  0  0
   54.2227   22.3761  102.2805 C   0  0  0  0  0  0  0  0  0  0  0  0
   55.0929   21.1215  102.6217 C   0  0  0  0  0  0  0  0  0  0  0  0
   56.5483   21.4888  102.5455 N   0  0  0  0  0  0  0  0  0  0  0  0
   54.6350   23.8232  106.8095 C   0  0  0  0  0  0  0  0  0  0  0  0
   54.7065   22.5746  107.0679 O   0  0  0  0  0  0  0  0  0  0  0  0
   54.4262   24.6839  107.7954 N   0  0  0  0  0  0  0  0  0  0  0  0
   54.2054   24.3207  109.1599 C   0  0  1  0  0  0  0  0  0  0  0  0
   54.6015   25.4543  110.0854 C   0  0  0  0  0  0  0  0  0  0  0  0
   54.1988   26.7492  109.5809 O   0  0  0  0  0  0  0  0  0  0  0  0
   52.7262   23.9675  109.4061 C   0  0  0  0  0  0  0  0  0  0  0  0
   51.9141   24.0486  108.4845 O   0  0  0  0  0  0  0  0  0  0  0  0
   52.4340   23.4883  110.6053 N   0  0  0  0  0  0  0  0  0  0  0  0
   51.0694   23.3413  111.1008 C   0  0  2  0  0  0  0  0  0  0  0  0
   52.5092   25.8620  111.2431 C   0  0  2  0  0  0  0  0  0  0  0  0
   53.1096   24.5986  111.9164 C   0  0  0  0  0  0  0  0  0  0  0  0
   50.9998   25.8353  111.3650 C   0  0  0  0  0  0  0  0  0  0  0  0
   50.3746   27.2223  111.4502 C   0  0  0  0  0  0  0  0  0  0  0  0
   50.8650   24.3036  112.2739 C   0  0  0  0  0  0  0  0  0  0  0  0
   51.4124   24.0518  113.3649 O   0  0  0  0  0  0  0  0  0  0  0  0
   50.0361   25.3309  112.1512 N   0  0  0  0  0  0  0  0  0  0  0  0
   49.6505   26.1683  113.3340 C   0  0  0  0  0  0  0  0  0  0  0  0
   48.8921   27.3289  112.7150 C   0  0  0  0  0  0  0  0  0  0  0  0
   48.2828   26.7239  111.4915 C   0  0  0  0  0  0  0  0  0  0  0  0
   49.2981   25.7383  110.9563 C   0  0  1  0  0  0  0  0  0  0  0  0
   50.2257   26.4138  109.9723 C   0  0  0  0  0  0  0  0  0  0  0  0
   51.3985   26.6713  110.2973 O   0  0  0  0  0  0  0  0  0  0  0  0
   49.8535   26.4306  108.6953 N   0  0  0  0  0  0  0  0  0  0  0  0
   48.6874   25.7982  108.0861 C   0  0  0  0  0  0  0  0  0  0  0  0
   48.5707   26.5359  106.7503 C   0  0  0  0  0  0  0  0  0  0  0  0
   50.0033   26.8426  106.3855 C   0  0  0  0  0  0  0  0  0  0  0  0
   50.7111   27.1642  107.7044 C   0  0  1  0  0  0  0  0  0  0  0  0
   50.7241   28.6496  107.9898 C   0  0  0  0  0  0  0  0  0  0  0  0
   49.7004   29.2495  108.3029 O   0  0  0  0  0  0  0  0  0  0  0  0
   51.8206   29.2722  107.6108 N   0  0  0  0  0  0  0  0  0  0  0  0
   51.9393   30.7330  107.6361 C   0  0  2  0  0  0  0  0  0  0  0  0
   50.8485   31.3848  108.4491 C   0  0  2  0  0  0  0  0  0  0  0  0
   50.6828   30.6791  109.8039 C   0  0  0  0  0  0  0  0  0  0  0  0
   49.5180   31.4399  107.6682 C   0  0  0  0  0  0  0  0  0  0  0  0
   49.5774   30.7043  106.3234 C   0  0  0  0  0  0  0  0  0  0  0  0
   51.8804   31.1697  106.1706 C   0  0  0  0  0  0  0  0  0  0  0  0
   52.7379   30.8563  105.3445 O   0  0  0  0  0  0  0  0  0  0  0  0
   50.8339   31.9534  105.8201 N   0  0  0  0  0  0  0  0  0  0  0  0
 15 13  1  0
 15 16  1  0
 15 14  1  0
 13 11  1  0
 13 14  1  6
 11 12  2  0
 11 10  1  0
 10  9  1  0
  9 51  1  0
  9  8  1  6
 51 52  2  0
 51 50  1  0
  8  7  1  0
  7  6  1  0
  6  5  1  0
  5  3  1  0
  3  2  2  0
  3  4  1  0
 49 50  1  1
 49 53  1  0
 49 48  1  0
 53 54  2  0
 53 55  1  0
 48 47  1  0
 47 46  1  0
 55 56  1  0
 56 65  1  0
 56 57  1  1
 65 66  2  0
 65 67  1  0
 57 58  1  0
 58 59  4  0
 58 64  4  0
 59 60  4  0
 64 63  4  0
 60 61  4  0
 63 61  4  0
 61 62  1  0
 67 68  1  0
 68 74  1  0
 68 69  1  6
 74 75  2  0
 74 76  1  0
 69 70  1  0
 70 71  1  0
 71 72  1  0
 72 73  1  0
 76 77  1  0
 77 80  1  0
 77 78  1  1
 80 81  2  0
 80 82  1  0
 78 79  1  0
 83 82  1  6
 83 88  1  0
 83 84  1  0
 88 89  2  0
 88 90  1  0
 84 86  1  0
 84 85  1  6
 86 87  1  0
 90 94  1  0
 90 91  1  0
 94 95  1  0
 94 93  1  1
 95 96  2  0
 95 97  1  0
 93 92  1  0
 92 91  1  0
 97101  1  0
 97 98  1  0
101102  1  0
101100  1  6
102103  2  0
102104  1  0
100 99  1  0
 99 98  1  0
105104  1  1
105110  1  0
105106  1  0
110111  2  0
110112  1  0
106108  1  0
106107  1  6
108109  1  0
 44112  1  6
 44 42  1  0
 44 45  1  0
 42 43  2  0
 42 41  1  0
 45 46  1  0
 41 33  1  0
 33 31  1  0
 33 34  1  6
 31 32  2  0
 31 30  1  0
 34 35  1  0
 35 36  4  0
 35 40  4  0
 36 37  4  0
 40 39  4  0
 37 38  4  0
 39 38  4  0
 30 26  1  0
 30 29  1  0
 26 24  1  0
 26 27  1  6
 24 25  2  0
 24 23  1  0
 27 28  1  0
 28 29  1  0
 23 18  1  0
 18 16  1  0
 18 19  1  6
 16 17  2  0
 19 20  1  0
 20 22  1  0
 20 21  2  0
  2  1  1  0
M  CHG  1  73   1
M  END
$$$$
