
     RDKit          3D

 21 24  0  0  0  0  0  0  0  0999 V2000
   30.8569   33.6621   21.3611 F   0  0  0  0  0  0  0  0  0  0  0  0
   31.7015   32.6548   21.6703 C   0  0  0  0  0  0  0  0  0  0  0  0
   32.0683   31.7595   20.6382 C   0  0  0  0  0  0  0  0  0  0  0  0
   32.4034   30.4467   20.9994 C   0  0  0  0  0  0  0  0  0  0  0  0
   32.5136   30.1086   22.3553 C   0  0  0  0  0  0  0  0  0  0  0  0
   32.9845   28.7243   22.7084 C   0  0  0  0  0  0  0  0  0  0  0  0
   34.4019   28.6193   22.8962 N   0  0  0  0  0  0  0  0  0  0  0  0
   35.0897   29.1037   24.0166 C   0  0  0  0  0  0  0  0  0  0  0  0
   34.5498   29.2685   25.2893 C   0  0  0  0  0  0  0  0  0  0  0  0
   35.4626   29.4263   26.3468 C   0  0  0  0  0  0  0  0  0  0  0  0
   36.8061   29.5130   26.0846 C   0  0  0  0  0  0  0  0  0  0  0  0
   37.3435   29.5022   24.7876 C   0  0  0  0  0  0  0  0  0  0  0  0
   36.4343   29.1648   23.7547 C   0  0  0  0  0  0  0  0  0  0  0  0
   36.6287   28.6935   22.4410 N   0  0  0  0  0  0  0  0  0  0  0  0
   37.9490   28.5219   21.8393 C   0  0  0  0  0  0  0  0  0  0  0  0
   37.8793   27.3340   20.7984 C   0  0  0  0  0  0  0  0  0  0  0  0
   36.5665   27.1454   20.0474 C   0  0  0  0  0  0  0  0  0  0  0  0
   35.3577   27.5082   20.8187 N   0  0  0  0  0  0  0  0  0  0  0  0
   35.4599   28.2061   21.8602 C   0  0  0  0  0  0  0  0  0  0  0  0
   32.2409   31.0691   23.3253 C   0  0  0  0  0  0  0  0  0  0  0  0
   31.9226   32.3382   22.9770 C   0  0  0  0  0  0  0  0  0  0  0  0
  2  3  4  0
  2  1  1  0
 21  2  4  0
  9 10  4  0
  8  9  4  0
  5 20  4  0
 20 21  4  0
  3  4  4  0
 10 11  4  0
 12 11  4  0
  7 19  1  0
 19 14  1  0
 19 18  1  0
  7  8  1  0
  6  7  1  0
 13 14  1  0
 14 15  1  0
  8 13  4  0
 13 12  4  0
 18 17  1  0
  6  5  1  0
 15 16  1  0
  5  4  4  0
 17 16  1  0
M  END
$$$$
