
     RDKit          3D

 31 34  0  0  0  0  0  0  0  0999 V2000
   94.3250  159.8340  172.2080 C   0  0  0  0  0  0  0  0  0  0  0  0
   94.7100  159.7030  173.6670 C   0  0  0  0  0  0  0  0  0  0  0  0
   93.5930  160.1950  174.5760 C   0  0  0  0  0  0  0  0  0  0  0  0
   93.8330  159.8410  176.0510 C   0  0  0  0  0  0  0  0  0  0  0  0
   92.5690  159.4090  176.6390 N   0  0  0  0  0  0  0  0  0  0  0  0
   92.1130  158.2950  177.2370 C   0  0  0  0  0  0  0  0  0  0  0  0
   90.7680  158.5320  177.5520 C   0  0  0  0  0  0  0  0  0  0  0  0
   89.7750  157.6060  178.2370 C   0  0  0  0  0  0  0  0  0  0  0  0
   88.3930  157.7800  177.5980 C   0  0  0  0  0  0  0  0  0  0  0  0
   87.2040  157.2530  178.4060 C   0  0  0  0  0  0  0  0  0  0  0  0
   85.7500  157.3280  177.4070 S   0  0  0  0  0  0  0  0  0  0  0  0
   84.7970  158.7670  177.8160 C   0  0  0  0  0  0  0  0  0  0  0  0
   85.5620  160.0670  177.5960 C   0  0  1  0  0  0  0  0  0  0  0  0
   85.9410  160.2520  176.1280 C   0  0  0  0  0  0  0  0  0  0  0  0
   85.8600  161.7110  175.9440 N   0  0  1  0  0  4  0  0  0  0  0  0
   85.8590  162.1990  174.5530 C   0  0  0  0  0  0  0  0  0  0  0  0
   84.7800  161.7360  173.6100 C   0  0  0  0  0  0  0  0  0  0  0  0
   84.9040  160.6910  172.7030 C   0  0  0  0  0  0  0  0  0  0  0  0
   83.7490  160.5980  171.9780 N   0  0  0  0  0  0  0  0  0  0  0  0
   82.8790  161.5490  172.3900 C   0  0  0  0  0  0  0  0  0  0  0  0
   81.5730  161.9240  172.0320 C   0  0  0  0  0  0  0  0  0  0  0  0
   80.8990  161.2740  171.0510 N   0  0  0  0  0  0  0  0  0  0  0  0
   80.9690  162.9510  172.7000 N   0  0  0  0  0  0  0  0  0  0  0  0
   81.6280  163.6290  173.6720 C   0  0  0  0  0  0  0  0  0  0  0  0
   82.8850  163.2840  174.0320 N   0  0  0  0  0  0  0  0  0  0  0  0
   83.5030  162.2490  173.4080 C   0  0  0  0  0  0  0  0  0  0  0  0
   84.7460  162.2260  176.7440 C   0  0  0  0  0  0  0  0  0  0  0  0
   84.7140  161.3060  177.9550 C   0  0  2  0  0  0  0  0  0  0  0  0
   85.2160  162.0770  179.0500 O   0  0  0  0  0  0  0  0  0  0  0  0
   90.4670  159.7840  177.1310 N   0  0  0  0  0  0  0  0  0  0  0  0
   91.5830  160.3800  176.5370 N   0  0  0  0  0  0  0  0  0  0  0  0
 28 29  1  1
 28 27  1  0
 28 13  1  0
 27 15  1  0
 15 16  1  6
 15 14  1  0
 16 17  1  0
 17 26  1  0
 17 18  2  0
 26 25  2  0
 26 20  1  0
 25 24  1  0
 24 23  2  0
 23 21  1  0
 21 22  1  0
 21 20  2  0
 20 19  1  0
 19 18  1  0
 14 13  1  0
 13 12  1  6
 12 11  1  0
 11 10  1  0
 10  9  1  0
  9  8  1  0
  8  7  1  0
  7 30  1  0
  7  6  2  0
 30 31  2  0
 31  5  1  0
  5  6  1  0
  5  4  1  0
  4  3  1  0
  3  2  1  0
  2  1  1  0
M  CHG  1  15   1
M  END
$$$$
