
     RDKit          3D

 31 34  0  0  0  0  0  0  0  0999 V2000
   93.1785  153.1395  182.3570 C   0  0  0  0  0  0  0  0  0  0  0  0
   93.2372  154.6515  182.4864 C   0  0  0  0  0  0  0  0  0  0  0  0
   92.2426  155.3881  181.5282 C   0  0  0  0  0  0  0  0  0  0  0  0
   90.7978  155.3574  182.0858 C   0  0  0  0  0  0  0  0  0  0  0  0
   89.9196  155.9645  181.0897 N   0  0  0  0  0  0  0  0  0  0  0  0
   88.7306  156.6547  181.1028 C   0  0  0  0  0  0  0  0  0  0  0  0
   88.1291  156.3346  179.8647 C   0  0  0  0  0  0  0  0  0  0  0  0
   86.6687  156.3296  179.5188 C   0  0  0  0  0  0  0  0  0  0  0  0
   86.1498  157.8048  179.5179 C   0  0  0  0  0  0  0  0  0  0  0  0
   85.4146  158.2581  178.2269 C   0  0  0  0  0  0  0  0  0  0  0  0
   85.2342  160.0438  178.2626 S   0  0  0  0  0  0  0  0  0  0  0  0
   86.5703  160.7899  179.1520 C   0  0  0  0  0  0  0  0  0  0  0  0
   87.4369  161.6684  178.2718 C   0  0  1  0  0  0  0  0  0  0  0  0
   87.0753  161.5488  176.7892 C   0  0  0  0  0  0  0  0  0  0  0  0
   87.2824  162.9077  176.2880 N   0  0  1  0  0  4  0  0  0  0  0  0
   86.7057  163.2158  174.9634 C   0  0  0  0  0  0  0  0  0  0  0  0
   85.4442  162.4814  174.5296 C   0  0  0  0  0  0  0  0  0  0  0  0
   85.3973  161.3039  173.7809 C   0  0  0  0  0  0  0  0  0  0  0  0
   84.1341  160.7912  173.8516 N   0  0  0  0  0  0  0  0  0  0  0  0
   83.3296  161.6935  174.4617 C   0  0  0  0  0  0  0  0  0  0  0  0
   81.9223  161.8685  174.5248 C   0  0  0  0  0  0  0  0  0  0  0  0
   81.1090  161.1845  173.6747 N   0  0  0  0  0  0  0  0  0  0  0  0
   81.4116  162.8538  175.2901 N   0  0  0  0  0  0  0  0  0  0  0  0
   82.2499  163.8376  175.8020 C   0  0  0  0  0  0  0  0  0  0  0  0
   83.5805  163.7367  175.6308 N   0  0  0  0  0  0  0  0  0  0  0  0
   84.1120  162.7015  174.9498 C   0  0  0  0  0  0  0  0  0  0  0  0
   86.8979  163.8702  177.3228 C   0  0  0  0  0  0  0  0  0  0  0  0
   87.2472  163.1767  178.6084 C   0  0  2  0  0  0  0  0  0  0  0  0
   88.4387  163.7971  179.1061 O   0  0  0  0  0  0  0  0  0  0  0  0
   89.0868  155.7706  179.0535 N   0  0  0  0  0  0  0  0  0  0  0  0
   90.2714  155.5647  179.8034 N   0  0  0  0  0  0  0  0  0  0  0  0
 28 29  1  6
 28 27  1  0
 28 13  1  0
 27 15  1  0
 15 16  1  6
 15 14  1  0
 16 17  1  0
 17 26  4  0
 17 18  4  0
 26 25  4  0
 26 20  4  0
 25 24  4  0
 24 23  4  0
 23 21  4  0
 21 22  1  0
 21 20  4  0
 20 19  4  0
 19 18  4  0
 14 13  1  0
 13 12  1  1
 12 11  1  0
 11 10  1  0
 10  9  1  0
  9  8  1  0
  8  7  1  0
  7 30  4  0
  7  6  4  0
 30 31  4  0
 31  5  4  0
  5  6  4  0
  5  4  1  0
  4  3  1  0
  3  2  1  0
  2  1  1  0
M  CHG  1  15   1
M  END
$$$$
