
     RDKit          3D

 31 33  0  0  0  0  0  0  0  0999 V2000
  -35.9342  -47.5597   24.0815 H   0  0  0  0  0  0  0  0  0  0  0  0
  -36.7935  -48.0804   23.3611 N   0  0  0  0  0  0  0  0  0  0  0  0
  -37.6340  -47.1099   23.0425 C   0  0  0  0  0  0  0  0  0  0  0  0
  -37.4950  -45.8806   23.8348 C   0  0  0  0  0  0  0  0  0  0  0  0
  -38.4673  -44.9093   23.5041 O   0  0  0  0  0  0  0  0  0  0  0  0
  -38.4982  -44.6464   22.0985 C   0  0  2  0  0  0  0  0  0  0  0  0
  -39.2933  -43.3401   21.8940 C   0  0  1  0  0  0  0  0  0  0  0  0
  -38.4045  -42.3293   22.0067 F   0  0  0  0  0  0  0  0  0  0  0  0
  -39.8346  -43.2715   20.7056 F   0  0  0  0  0  0  0  0  0  0  0  0
  -40.2282  -43.1591   22.8085 F   0  0  0  0  0  0  0  0  0  0  0  0
  -39.1866  -45.9154   21.4389 C   0  0  1  0  0  0  0  0  0  0  0  0
  -40.6117  -46.0657   21.8385 C   0  0  0  0  0  0  0  0  0  0  0  0
  -39.0059  -45.8919   19.8865 C   0  0  0  0  0  0  0  0  0  0  0  0
  -37.7659  -46.1248   19.3317 C   0  0  0  0  0  0  0  0  0  0  0  0
  -37.4590  -45.6448   18.0755 C   0  0  0  0  0  0  0  0  0  0  0  0
  -36.1107  -45.2713   17.8607 N   0  0  0  0  0  0  0  0  0  0  0  0
  -35.3884  -45.5954   16.7576 C   0  0  0  0  0  0  0  0  0  0  0  0
  -35.8069  -45.6272   15.6078 O   0  0  0  0  0  0  0  0  0  0  0  0
  -33.9467  -45.4535   17.0158 C   0  0  0  0  0  0  0  0  0  0  0  0
  -33.4787  -46.2238   18.0215 N   0  0  0  0  0  0  0  0  0  0  0  0
  -32.1984  -46.5249   17.9667 C   0  0  0  0  0  0  0  0  0  0  0  0
  -31.2938  -45.9832   17.0753 C   0  0  0  0  0  0  0  0  0  0  0  0
  -29.5428  -46.2168   17.2136 Cl  0  0  0  0  0  0  0  0  0  0  0  0
  -31.7524  -45.1078   16.0933 C   0  0  0  0  0  0  0  0  0  0  0  0
  -33.1167  -44.8088   16.0962 C   0  0  0  0  0  0  0  0  0  0  0  0
  -33.6342  -43.5919   15.0101 Cl  0  0  0  0  0  0  0  0  0  0  0  0
  -38.4466  -45.2927   17.1725 C   0  0  0  0  0  0  0  0  0  0  0  0
  -39.7410  -45.1490   17.6733 C   0  0  0  0  0  0  0  0  0  0  0  0
  -40.0108  -45.4832   18.9716 C   0  0  0  0  0  0  0  0  0  0  0  0
  -41.3150  -45.5392   19.4231 F   0  0  0  0  0  0  0  0  0  0  0  0
  -38.4519  -47.0726   21.9469 N   0  0  0  0  0  0  0  0  0  0  0  0
 11 12  1  6
  6  7  1  0
  7  8  1  6
  7  9  1  0
  7 10  1  0
 13 14  4  0
 11 13  1  0
 13 29  4  0
 14 15  4  0
 15 27  4  0
 15 16  1  0
 17 19  1  0
 16 17  1  0
 17 18  2  0
 11  6  1  0
 31 11  1  0
 19 25  4  0
 19 20  4  0
 21 22  4  0
 20 21  4  0
 24 22  4  0
 22 23  1  0
 25 24  4  0
 25 26  1  0
 28 27  4  0
 29 28  4  0
 29 30  1  0
  3  4  1  0
  3 31  1  0
  3  2  2  0
  4  5  1  0
  6  5  1  6
  2  1  1  0
M  END
$$$$
