
     RDKit          3D

 24 26  0  0  0  0  0  0  0  0999 V2000
  -24.3830   16.3660   14.9490 C   0  0  0  0  0  0  0  0  0  0  0  0
  -24.1590   17.2870   16.0160 C   0  0  0  0  0  0  0  0  0  0  0  0
  -25.2430   17.6120   16.8210 C   0  0  0  0  0  0  0  0  0  0  0  0
  -25.1410   18.4870   17.9130 C   0  0  0  0  0  0  0  0  0  0  0  0
  -26.2550   18.7830   18.6480 C   0  0  0  0  0  0  0  0  0  0  0  0
  -26.3050   19.2380   19.9090 N   0  0  0  0  0  0  0  0  0  0  0  0
  -27.8830   19.4250   20.1700 O   0  0  0  0  0  0  0  0  0  0  0  0
  -28.4570   19.0910   19.0330 C   0  0  0  0  0  0  0  0  0  0  0  0
  -29.6840   19.1120   18.8200 O   0  0  0  0  0  0  0  0  0  0  0  0
  -27.5210   18.7280   18.1330 N   0  0  0  0  0  0  0  0  0  0  0  0
  -23.8830   19.0610   18.1500 C   0  0  0  0  0  0  0  0  0  0  0  0
  -22.7830   18.7500   17.3310 C   0  0  0  0  0  0  0  0  0  0  0  0
  -22.9030   17.8530   16.2660 C   0  0  0  0  0  0  0  0  0  0  0  0
  -21.8180   17.6030   15.3820 C   0  0  0  0  0  0  0  0  0  0  0  0
  -22.0040   17.9840   14.0460 C   0  0  0  0  0  0  0  0  0  0  0  0
  -21.0280   17.8260   13.0550 C   0  0  0  0  0  0  0  0  0  0  0  0
  -21.2880   18.1550   11.8830 O   0  0  0  0  0  0  0  0  0  0  0  0
  -19.8080   17.2850   13.4470 C   0  0  0  0  0  0  0  0  0  0  0  0
  -18.8420   17.0860   12.5530 O   0  0  0  0  0  0  0  0  0  0  0  0
  -19.5730   16.9570   14.7670 C   0  0  0  0  0  0  0  0  0  0  0  0
  -18.3870   16.4560   15.2480 C   0  0  0  0  0  0  0  0  0  0  0  0
  -18.3040   16.4170   16.4730 O   0  0  0  0  0  0  0  0  0  0  0  0
  -17.3930   16.1710   14.5340 O   0  0  0  0  0  0  0  0  0  0  0  0
  -20.5780   17.1150   15.7280 N   0  0  0  0  0  0  0  0  0  0  0  0
 23 21  1  0
 21 22  2  0
 21 20  1  0
 20 24  2  0
 20 18  1  0
 24 14  1  0
 18 19  1  0
 18 16  1  0
 16 17  2  0
 16 15  1  0
 15 14  2  0
 14 13  1  0
 13  2  2  0
 13 12  1  0
  2  1  1  0
  2  3  1  0
  3  4  2  0
 12 11  2  0
 11  4  1  0
  4  5  1  0
  5  6  2  0
  5 10  1  0
  6  7  1  0
  7  8  1  0
  8  9  2  0
  8 10  1  0
M  END
$$$$
