
     RDKit          3D

 12 12  0  0  0  0  0  0  0  0999 V2000
  -21.4492   19.6112   16.0933 C   0  0  0  0  0  0  0  0  0  0  0  0
  -21.1505   18.5582   15.1542 C   0  0  0  0  0  0  0  0  0  0  0  0
  -21.4332   18.7474   13.7934 C   0  0  0  0  0  0  0  0  0  0  0  0
  -20.6794   18.0779   12.8015 C   0  0  0  0  0  0  0  0  0  0  0  0
  -20.9502   18.2853   11.6116 O   0  0  0  0  0  0  0  0  0  0  0  0
  -19.7322   17.0837   13.2507 C   0  0  0  0  0  0  0  0  0  0  0  0
  -18.9026   16.5025   12.3417 O   0  0  0  0  0  0  0  0  0  0  0  0
  -19.4644   16.8746   14.6015 C   0  0  0  0  0  0  0  0  0  0  0  0
  -18.2714   16.3894   15.1903 C   0  0  0  0  0  0  0  0  0  0  0  0
  -17.3790   16.2205   14.3525 O   0  0  0  0  0  0  0  0  0  0  0  0
  -18.0350   16.3076   16.4419 O   0  0  0  0  0  0  0  0  0  0  0  0
  -20.3214   17.5065   15.5660 N   0  0  0  0  0  0  0  0  0  0  0  0
 10  9  2  0
  9 11  1  0
  9  8  1  0
  8 12  2  0
  8  6  1  0
 12  2  1  0
  2  1  1  0
  2  3  2  0
  3  4  1  0
  4  5  2  0
  4  6  1  0
  6  7  1  0
M  END
$$$$
