
     RDKit          3D

 20 20  0  0  0  0  0  0  0  0999 V2000
    5.7170   10.2920  -27.8760 C   0  0  0  0  0  0  0  0  0  0  0  0
    6.7260   11.3200  -27.7410 C   0  0  0  0  0  0  0  0  0  0  0  0
    6.5420   12.6500  -27.5550 C   0  0  0  0  0  0  0  0  0  0  0  0
    5.1930   13.2830  -27.4400 C   0  0  0  0  0  0  0  0  0  0  0  0
    7.6880   13.4970  -27.3690 C   0  0  0  0  0  0  0  0  0  0  0  0
    7.6980   14.8140  -27.0900 C   0  0  0  0  0  0  0  0  0  0  0  0
    8.9100   15.5430  -26.8360 C   0  0  0  0  0  0  0  0  0  0  0  0
    9.1530   16.8810  -26.9040 C   0  0  0  0  0  0  0  0  0  0  0  0
    8.1660   17.9260  -27.3550 C   0  0  0  0  0  0  0  0  0  0  0  0
   10.4720   17.3000  -26.5300 C   0  0  0  0  0  0  0  0  0  0  0  0
   11.3640   17.9420  -27.2190 C   0  0  0  0  0  0  0  0  0  0  0  0
   12.6870   18.2080  -26.6990 C   0  0  2  0  0  0  0  0  0  0  0  0
   13.5610   17.2150  -26.4890 C   0  0  2  0  0  0  0  0  0  0  0  0
   13.5830   15.9300  -27.2740 C   0  0  0  0  0  0  0  0  0  0  0  0
   14.4960   17.2110  -25.3220 C   0  0  0  0  0  0  0  0  0  0  0  0
   14.8270   18.5990  -24.7960 C   0  0  0  0  0  0  0  0  0  0  0  0
   14.4240   19.7210  -25.7480 C   0  0  0  0  0  0  0  0  0  0  0  0
   12.9750   19.6330  -26.2360 C   0  0  1  0  0  0  0  0  0  0  0  0
   12.7560   20.6240  -27.3840 C   0  0  0  0  0  0  0  0  0  0  0  0
   12.0570   20.0140  -25.0700 C   0  0  0  0  0  0  0  0  0  0  0  0
 18 17  1  0
 18 12  1  0
 18 19  1  6
 18 20  1  0
 17 16  1  0
 16 15  1  0
 15 13  1  0
 13 12  1  0
 13 14  1  1
 12 11  1  1
 11 10  2  0
 10  8  1  0
  8  7  2  0
  8  9  1  0
  7  6  1  0
  6  5  2  0
  5  3  1  0
  3  2  2  0
  3  4  1  0
  2  1  1  0
M  END
$$$$
