
     RDKit          3D

 27 32  0  0  0  0  0  0  0  0999 V2000
    0.1920   58.6510  113.9350 C   0  0  0  0  0  0  0  0  0  0  0  0
    1.1810   59.6760  114.5740 C   0  0  2  0  0  0  0  0  0  0  0  0
    0.3420   60.7520  115.3360 C   0  0  0  0  0  0  0  0  0  0  0  0
    1.9350   60.4090  113.4070 C   0  0  0  0  0  0  0  0  0  0  0  0
    1.4380   61.2750  112.4780 N   0  0  0  0  0  0  0  0  0  0  0  0
    2.4820   61.6980  111.6070 C   0  0  0  0  0  0  0  0  0  0  0  0
    2.5000   62.5850  110.4930 C   0  0  0  0  0  0  0  0  0  0  0  0
    3.7130   62.8090  109.8080 C   0  0  0  0  0  0  0  0  0  0  0  0
    3.8030   63.9070  108.4050 Cl  0  0  0  0  0  0  0  0  0  0  0  0
    4.9070   62.1710  110.2110 C   0  0  0  0  0  0  0  0  0  0  0  0
    6.4060   62.5090  109.2950 Cl  0  0  0  0  0  0  0  0  0  0  0  0
    4.8980   61.2950  111.3120 C   0  0  0  0  0  0  0  0  0  0  0  0
    3.6780   61.0630  112.0060 C   0  0  0  0  0  0  0  0  0  0  0  0
    3.3370   60.2410  113.1400 C   0  0  0  0  0  0  0  0  0  0  0  0
    4.2570   59.3000  114.0330 C   0  0  0  0  0  0  0  0  0  0  0  0
    3.7450   59.3510  115.4820 C   0  0  1  0  0  0  0  0  0  0  0  0
    3.9960   60.7560  116.1790 C   0  0  0  0  0  0  0  0  0  0  0  0
    3.1750   60.9050  117.2880 N   0  0  2  0  0  4  0  0  0  0  0  0
    3.7410   61.5380  118.3430 C   0  0  0  0  0  0  0  0  0  0  0  0
    2.9110   61.0120  119.6400 C   0  0  0  0  0  0  0  0  0  0  0  0
    2.2670   59.7750  119.2280 C   0  0  0  0  0  0  0  0  0  0  0  0
    2.6570   59.5630  117.8120 C   0  0  1  0  0  0  0  0  0  0  0  0
    1.6420   58.9700  116.8980 C   0  0  0  0  0  0  0  0  0  0  0  0
    2.1140   58.8850  115.5750 C   0  0  1  0  0  0  0  0  0  0  0  0
    3.9390   58.6120  117.6360 C   0  0  0  0  0  0  0  0  0  0  0  0
    4.4740   58.0610  118.5500 O   0  0  0  0  0  0  0  0  0  0  0  0
    4.3810   58.4960  116.3170 N   0  0  0  0  0  0  0  0  0  0  0  0
  7  8  2  0
  8 10  1  0
  8  9  1  0
  6  7  1  0
  6 13  2  0
  5  6  1  0
  4 14  2  0
  4  2  1  0
  4  5  1  0
 14 15  1  0
 14 13  1  0
 16 15  1  6
 16 24  1  0
 16 17  1  0
 16 27  1  0
 24 23  1  1
 24  2  1  0
 23 22  1  0
 22 25  1  0
 22 21  1  1
 22 18  1  0
 25 27  1  0
 25 26  2  0
 21 20  2  0
 20 19  1  0
 18 19  1  1
 17 18  1  0
  2  1  1  6
  2  3  1  0
 13 12  1  0
 12 10  2  0
 10 11  1  0
M  CHG  1  18   1
M  END
$$$$
