
     RDKit          3D

 21 20  0  0  0  0  0  0  0  0999 V2000
   22.0444   44.1026   44.8986 C   0  0  0  0  0  0  0  0  0  0  0  0
   21.8965   45.4900   44.1734 C   0  0  2  0  0  0  0  0  0  0  0  0
   22.3997   46.5931   45.1968 C   0  0  0  0  0  0  0  0  0  0  0  0
   20.4321   45.7377   43.8383 C   0  0  0  0  0  0  0  0  0  0  0  0
   19.4546   45.2427   44.9368 C   0  0  2  0  0  0  0  0  0  0  0  0
   18.1120   45.4218   44.3248 N   0  0  0  0  0  0  0  0  0  0  0  0
   17.7221   44.7500   43.2753 C   0  0  0  0  0  0  0  0  0  0  0  0
   18.5145   44.3955   42.3882 O   0  0  0  0  0  0  0  0  0  0  0  0
   16.3902   44.6933   43.0587 N   0  0  0  0  0  0  0  0  0  0  0  0
   15.8496   44.3065   41.7225 C   0  0  1  0  0  0  0  0  0  0  0  0
   14.5570   45.1414   41.4637 C   0  0  0  0  0  0  0  0  0  0  0  0
   14.8101   46.6569   41.8084 C   0  0  0  0  0  0  0  0  0  0  0  0
   14.3011   47.6740   40.7699 C   0  0  0  0  0  0  0  0  0  0  0  0
   14.4207   48.8605   41.0709 O   0  0  0  0  0  0  0  0  0  0  0  0
   13.8015   47.2480   39.7170 O   0  0  0  0  0  0  0  0  0  0  0  0
   16.9570   44.6450   40.6766 C   0  0  0  0  0  0  0  0  0  0  0  0
   18.1562   44.7533   41.1234 O   0  0  0  0  0  0  0  0  0  0  0  0
   16.6857   44.6699   39.4642 O   0  0  0  0  0  0  0  0  0  0  0  0
   19.5177   46.1361   46.2123 C   0  0  0  0  0  0  0  0  0  0  0  0
   20.6239   46.0194   46.7971 O   0  0  0  0  0  0  0  0  0  0  0  0
   18.7034   47.0611   46.2709 O   0  0  0  0  0  0  0  0  0  0  0  0
 15 13  1  0
 13 14  2  0
 13 12  1  0
 12 11  1  0
 10 11  1  6
 10 16  1  0
 10  9  1  0
 16 17  2  0
 16 18  1  0
  9  7  1  0
  7  8  2  0
  7  6  1  0
  6  5  1  0
  5 19  1  0
  5  4  1  6
 19 21  1  0
 19 20  2  0
  4  2  1  0
  2  1  1  1
  2  3  1  0
M  END
$$$$
