
     RDKit          3D

 21 20  0  0  0  0  0  0  0  0999 V2000
   23.1790   47.1410   42.8670 C   0  0  0  0  0  0  0  0  0  0  0  0
   22.4100   46.2990   43.9050 C   0  0  2  0  0  0  0  0  0  0  0  0
   23.0390   44.8840   43.9490 C   0  0  0  0  0  0  0  0  0  0  0  0
   20.9430   46.1700   43.4770 C   0  0  0  0  0  0  0  0  0  0  0  0
   20.0620   45.4250   44.5220 C   0  0  2  0  0  0  0  0  0  0  0  0
   18.6780   45.6370   44.0590 N   0  0  0  0  0  0  0  0  0  0  0  0
   18.0990   44.8640   43.1620 C   0  0  0  0  0  0  0  0  0  0  0  0
   18.5930   43.8100   42.7300 O   0  0  0  0  0  0  0  0  0  0  0  0
   16.8350   45.2030   42.8170 N   0  0  0  0  0  0  0  0  0  0  0  0
   16.1530   44.5590   41.6920 C   0  0  1  0  0  0  0  0  0  0  0  0
   14.8010   45.2630   41.3540 C   0  0  0  0  0  0  0  0  0  0  0  0
   15.0650   46.7920   41.1590 C   0  0  0  0  0  0  0  0  0  0  0  0
   13.8640   47.5640   40.6240 C   0  0  0  0  0  0  0  0  0  0  0  0
   13.8560   48.7940   40.8410 O   0  0  0  0  0  0  0  0  0  0  0  0
   13.1030   46.9940   39.8140 O   0  0  0  0  0  0  0  0  0  0  0  0
   17.1090   44.6850   40.4570 C   0  0  0  0  0  0  0  0  0  0  0  0
   16.9800   43.8240   39.5470 O   0  0  0  0  0  0  0  0  0  0  0  0
   17.9920   45.5850   40.4310 O   0  0  0  0  0  0  0  0  0  0  0  0
   20.2220   46.0070   45.9090 C   0  0  0  0  0  0  0  0  0  0  0  0
   20.7420   45.2280   46.7370 O   0  0  0  0  0  0  0  0  0  0  0  0
   19.7790   47.1630   46.1180 O   0  0  0  0  0  0  0  0  0  0  0  0
 15 13  1  0
 13 14  2  0
 13 12  1  0
 12 11  1  0
 10 11  1  6
 10 16  1  0
 10  9  1  0
 16 17  2  0
 16 18  1  0
  9  7  1  0
  7  8  2  0
  7  6  1  0
  6  5  1  0
  5 19  1  0
  5  4  1  6
 19 21  1  0
 19 20  2  0
  4  2  1  0
  2  1  1  6
  2  3  1  0
M  END
$$$$
