
     RDKit          3D

 26 29  0  0  0  0  0  0  0  0999 V2000
   39.1830   15.3610    5.8160 C   0  0  0  0  0  0  0  0  0  0  0  0
   40.5050   15.4640    6.5140 C   0  0  0  0  0  0  0  0  0  0  0  0
   41.3100   14.5470    6.4610 O   0  0  0  0  0  0  0  0  0  0  0  0
   40.7920   16.6100    7.2290 N   0  0  0  0  0  0  0  0  0  0  0  0
   39.9480   17.7500    7.3560 C   0  0  0  0  0  0  0  0  0  0  0  0
   39.2040   18.2610    6.2970 C   0  0  0  0  0  0  0  0  0  0  0  0
   38.4110   19.3790    6.4900 C   0  0  0  0  0  0  0  0  0  0  0  0
   38.3700   20.0060    7.7170 C   0  0  0  0  0  0  0  0  0  0  0  0
   39.1170   19.5240    8.7770 C   0  0  0  0  0  0  0  0  0  0  0  0
   39.9250   18.4020    8.5970 C   0  0  0  0  0  0  0  0  0  0  0  0
   40.7040   17.8760    9.6900 N   0  0  0  0  0  0  0  0  0  0  0  0
   40.8950   18.6950   10.8880 C   0  0  0  0  0  0  0  0  0  0  0  0
   40.1100   18.1850   12.0730 C   0  0  0  0  0  0  0  0  0  0  0  0
   39.0670   17.2850   11.8700 C   0  0  0  0  0  0  0  0  0  0  0  0
   38.3340   16.7950   12.9350 C   0  0  0  0  0  0  0  0  0  0  0  0
   38.6290   17.1960   14.2190 C   0  0  0  0  0  0  0  0  0  0  0  0
   39.6590   18.0900   14.4490 C   0  0  0  0  0  0  0  0  0  0  0  0
   40.4080   18.5910   13.3830 C   0  0  0  0  0  0  0  0  0  0  0  0
   41.5090   19.5510   13.6820 C   0  0  0  0  0  0  0  0  0  0  0  0
   41.5320   20.6800   13.2080 O   0  0  0  0  0  0  0  0  0  0  0  0
   42.4330   19.0890   14.4710 O   0  0  0  0  0  0  0  0  0  0  0  0
   41.8770   17.0480    9.3840 C   0  0  0  0  0  0  0  0  0  0  0  0
   42.1000   16.6770    7.9250 C   0  0  2  0  0  0  0  0  0  0  0  0
   43.1020   17.5610    7.1920 C   0  0  2  0  0  0  0  0  0  0  0  0
   43.9980   16.9330    6.1710 C   0  0  0  0  0  0  0  0  0  0  0  0
   44.5580   17.3550    7.4820 C   0  0  0  0  0  0  0  0  0  0  0  0
 23 22  1  1
 11 22  1  0
 13 18  1  0
 12 13  1  0
 13 14  2  0
 15 16  2  0
 14 15  1  0
 17 16  1  0
 18 17  2  0
 18 19  1  0
  2  1  1  0
  2  3  2  0
  4  2  1  0
 23  4  1  0
  4  5  1  0
 23 24  1  0
 11 12  1  0
 11 10  1  0
 19 21  1  0
 19 20  2  0
 10  9  2  0
 10  5  1  0
  9  8  1  0
  8  7  2  0
  7  6  1  0
  6  5  2  0
 24 25  1  6
 24 26  1  0
 25 26  2  0
M  END
$$$$
