
     RDKit          3D

 34 38  0  0  0  0  0  0  0  0999 V2000
   39.6790   15.0900    5.8700 C   0  0  0  0  0  0  0  0  0  0  0  0
   41.0320   15.0830    6.5120 C   0  0  0  0  0  0  0  0  0  0  0  0
   41.7810   14.1270    6.3980 O   0  0  0  0  0  0  0  0  0  0  0  0
   41.4140   16.1890    7.2340 N   0  0  0  0  0  0  0  0  0  0  0  0
   40.6300   17.3580    7.4310 C   0  0  0  0  0  0  0  0  0  0  0  0
   39.8880   17.9580    6.4180 C   0  0  0  0  0  0  0  0  0  0  0  0
   39.1730   19.1120    6.6830 C   0  0  0  0  0  0  0  0  0  0  0  0
   39.1830   19.6960    7.9470 C   0  0  0  0  0  0  0  0  0  0  0  0
   38.4530   20.9540    8.2250 C   0  0  0  0  0  0  0  0  0  0  0  0
   37.2100   21.2620    7.6880 C   0  0  0  0  0  0  0  0  0  0  0  0
   36.5590   22.4030    7.9360 N   0  0  0  0  0  0  0  0  0  0  0  0
   37.2040   23.2370    8.7500 C   0  0  0  0  0  0  0  0  0  0  0  0
   36.5190   24.5510    9.0560 C   0  0  0  0  0  0  0  0  0  0  0  0
   37.3590   25.5800    9.1230 N   0  0  0  0  0  0  0  0  0  0  0  0
   35.2970   24.6480    9.2460 O   0  0  0  0  0  0  0  0  0  0  0  0
   38.3940   23.0500    9.3140 N   0  0  0  0  0  0  0  0  0  0  0  0
   38.9840   21.9390    9.0430 C   0  0  0  0  0  0  0  0  0  0  0  0
   39.9590   19.1070    8.9440 C   0  0  0  0  0  0  0  0  0  0  0  0
   40.6900   17.9520    8.6970 C   0  0  0  0  0  0  0  0  0  0  0  0
   41.4630   17.3700    9.7730 N   0  0  0  0  0  0  0  0  0  0  0  0
   41.6970   18.1550   10.9860 C   0  0  0  0  0  0  0  0  0  0  0  0
   40.7970   17.7650   12.1370 C   0  0  0  0  0  0  0  0  0  0  0  0
   39.6680   16.9860   11.8880 C   0  0  0  0  0  0  0  0  0  0  0  0
   38.8290   16.5980   12.9170 C   0  0  0  0  0  0  0  0  0  0  0  0
   39.1040   16.9830   14.2100 C   0  0  0  0  0  0  0  0  0  0  0  0
   40.2210   17.7530   14.4790 C   0  0  0  0  0  0  0  0  0  0  0  0
   41.0800   18.1530   13.4570 C   0  0  0  0  0  0  0  0  0  0  0  0
   42.2920   18.9950   13.7840 C   0  0  0  0  0  0  0  0  0  0  0  0
   42.2030   20.2980   13.2330 O   0  0  0  0  0  0  0  0  0  0  0  0
   42.7010   16.7180    9.3310 C   0  0  0  0  0  0  0  0  0  0  0  0
   42.7370   16.2150    7.8960 C   0  0  2  0  0  0  0  0  0  0  0  0
   43.6840   17.1080    7.1120 C   0  0  1  0  0  0  0  0  0  0  0  0
   45.1490   16.8710    7.3000 C   0  0  0  0  0  0  0  0  0  0  0  0
   44.5090   16.5320    6.0000 C   0  0  0  0  0  0  0  0  0  0  0  0
 31 30  1  1
 20 30  1  0
 22 27  1  0
 21 22  1  0
 22 23  2  0
 24 25  2  0
 23 24  1  0
 26 25  1  0
 27 26  2  0
 27 28  1  0
  2  1  1  0
  2  3  2  0
  4  2  1  0
 31  4  1  0
  4  5  1  0
 31 32  1  0
 20 21  1  0
 20 19  1  0
 28 29  1  0
 19 18  2  0
 19  5  1  0
 18  8  1  0
  8  7  2  0
  8  9  1  0
  7  6  1  0
  6  5  2  0
  9 10  2  0
  9 17  1  0
 10 11  1  0
 11 12  2  0
 12 16  1  0
 12 13  1  0
 16 17  2  0
 13 14  1  0
 13 15  2  0
 32 33  1  1
 32 34  1  0
 33 34  2  0
M  END
$$$$
