
     RDKit          3D

 21 23  0  0  0  0  0  0  0  0999 V2000
  -19.7720   95.6730   50.9630 N   0  0  0  0  0  0  0  0  0  0  0  0
  -20.8930   95.9830   50.9610 C   0  0  0  0  0  0  0  0  0  0  0  0
  -22.2380   96.3490   50.9770 C   0  0  0  0  0  0  0  0  0  0  0  0
  -23.0540   96.5060   52.0880 C   0  0  0  0  0  0  0  0  0  0  0  0
  -24.3150   96.8240   51.7030 N   0  0  0  0  0  0  0  0  0  0  0  0
  -25.4650   97.0380   52.6600 C   0  0  2  0  0  0  0  0  0  0  0  0
  -24.9820   97.5990   53.8610 O   0  0  0  0  0  0  0  0  0  0  0  0
  -25.2500   96.7210   54.9460 C   0  0  2  0  0  0  0  0  0  0  0  0
  -24.0550   96.7820   55.9800 C   0  0  0  0  0  0  0  0  0  0  0  0
  -22.9050   96.2580   55.4110 O   0  0  0  0  0  0  0  0  0  0  0  0
  -25.3910   95.3670   54.2190 C   0  0  1  0  0  0  0  0  0  0  0  0
  -26.1510   94.4150   55.0250 O   0  0  0  0  0  0  0  0  0  0  0  0
  -26.1210   95.7560   53.0410 C   0  0  1  0  0  0  0  0  0  0  0  0
  -27.4660   95.9390   53.2840 O   0  0  0  0  0  0  0  0  0  0  0  0
  -24.4220   96.9050   50.3880 C   0  0  0  0  0  0  0  0  0  0  0  0
  -25.5010   97.2220   49.6320 N   0  0  0  0  0  0  0  0  0  0  0  0
  -25.3280   97.3290   48.2990 C   0  0  0  0  0  0  0  0  0  0  0  0
  -24.0940   97.0260   47.7030 N   0  0  0  0  0  0  0  0  0  0  0  0
  -23.0040   96.6660   48.4490 C   0  0  0  0  0  0  0  0  0  0  0  0
  -21.9470   96.3700   47.8210 O   0  0  0  0  0  0  0  0  0  0  0  0
  -23.1270   96.6240   49.8540 C   0  0  0  0  0  0  0  0  0  0  0  0
  6  5  1  6
  6  7  1  0
 13  6  1  0
  5 15  1  0
  5  4  1  0
  7  8  1  0
 15 16  1  0
 15 21  2  0
 16 17  2  0
 13 14  1  1
 17 18  1  0
 19 18  1  0
 11 12  1  1
 21 19  1  0
 19 20  2  0
  2  1  3  0
  3 21  1  0
  4  3  2  0
  3  2  1  0
 13 11  1  0
 11  8  1  0
  8  9  1  1
  9 10  1  0
M  END
$$$$
