
     RDKit          3D

 16 17  0  0  0  0  0  0  0  0999 V2000
   -6.6905   -3.4260   18.4696 O   0  0  0  0  0  0  0  0  0  0  0  0
   -7.7573   -3.8636   18.9492 C   0  0  0  0  0  0  0  0  0  0  0  0
   -8.2470   -3.4046   19.9967 O   0  0  0  0  0  0  0  0  0  0  0  0
   -8.2133   -5.2387   18.5483 C   0  0  0  0  0  0  0  0  0  0  0  0
   -8.9187   -5.3412   17.3512 C   0  0  0  0  0  0  0  0  0  0  0  0
   -8.9349   -6.5086   16.6201 C   0  0  0  0  0  0  0  0  0  0  0  0
   -8.3561   -7.6840   17.1271 C   0  0  0  0  0  0  0  0  0  0  0  0
   -7.7570   -7.6353   18.3946 C   0  0  0  0  0  0  0  0  0  0  0  0
   -7.7150   -6.4565   19.1182 C   0  0  0  0  0  0  0  0  0  0  0  0
   -6.9845   -6.4218   20.3846 C   0  0  0  0  0  0  0  0  0  0  0  0
   -5.9997   -5.5799   20.7331 C   0  0  0  0  0  0  0  0  0  0  0  0
   -5.6376   -5.2284   22.1021 C   0  0  0  0  0  0  0  0  0  0  0  0
   -5.8726   -5.9665   23.2270 C   0  0  0  0  0  0  0  0  0  0  0  0
   -5.6784   -5.2381   24.4643 C   0  0  0  0  0  0  0  0  0  0  0  0
   -5.2650   -3.9736   24.2351 C   0  0  0  0  0  0  0  0  0  0  0  0
   -5.0215   -3.6425   22.5451 S   0  0  0  0  0  0  0  0  0  0  0  0
  9  4  4  0
  4  5  4  0
  4  2  1  0
 11 10  2  0
 12 11  1  0
  9  8  4  0
 10  9  1  0
 14 15  4  0
 15 16  4  0
  5  6  4  0
  7  6  4  0
  2  1  2  0
  2  3  1  0
 13 14  4  0
  8  7  4  0
 12 13  4  0
 12 16  4  0
M  END
$$$$
