
     RDKit          3D

 16 17  0  0  0  0  0  0  0  0999 V2000
   -3.0710  -20.3110   19.1780 O   0  0  0  0  0  0  0  0  0  0  0  0
   -1.9780  -20.2920   18.5700 C   0  0  0  0  0  0  0  0  0  0  0  0
   -1.1450  -21.2280   18.6120 O   0  0  0  0  0  0  0  0  0  0  0  0
   -1.6300  -19.0620   17.7610 C   0  0  0  0  0  0  0  0  0  0  0  0
   -0.3920  -18.4640   18.0180 C   0  0  0  0  0  0  0  0  0  0  0  0
   -0.0230  -17.2950   17.3660 C   0  0  0  0  0  0  0  0  0  0  0  0
   -0.8590  -16.7290   16.4240 C   0  0  0  0  0  0  0  0  0  0  0  0
   -2.0900  -17.3010   16.1480 C   0  0  0  0  0  0  0  0  0  0  0  0
   -2.5030  -18.4660   16.8130 C   0  0  0  0  0  0  0  0  0  0  0  0
   -3.8090  -19.0750   16.5170 C   0  0  0  0  0  0  0  0  0  0  0  0
   -5.0060  -18.4900   16.5200 C   0  0  0  0  0  0  0  0  0  0  0  0
   -6.2800  -19.1390   16.2950 C   0  0  0  0  0  0  0  0  0  0  0  0
   -7.5210  -18.5140   16.2960 C   0  0  0  0  0  0  0  0  0  0  0  0
   -8.5980  -19.4390   16.0700 C   0  0  0  0  0  0  0  0  0  0  0  0
   -8.1570  -20.7070   15.9090 C   0  0  0  0  0  0  0  0  0  0  0  0
   -6.4380  -20.8320   16.0020 S   0  0  0  0  0  0  0  0  0  0  0  0
  9  4  2  0
  4  5  1  0
  4  2  1  0
 11 10  2  0
 12 11  1  0
  9  8  1  0
 10  9  1  0
 14 15  2  0
 15 16  1  0
  5  6  2  0
  7  6  1  0
  2  1  2  0
  2  3  1  0
 13 14  1  0
  8  7  2  0
 12 13  2  0
 12 16  1  0
M  END
$$$$
