
     RDKit          3D

 20 22  0  0  0  0  0  0  0  0999 V2000
   -8.8959    5.9630  -20.4784 C   0  0  0  0  0  0  0  0  0  0  0  0
   -9.3074    4.6556  -19.9332 C   0  0  0  0  0  0  0  0  0  0  0  0
   -8.3515    3.6467  -19.7238 C   0  0  0  0  0  0  0  0  0  0  0  0
   -8.7899    2.3079  -19.6648 C   0  0  0  0  0  0  0  0  0  0  0  0
   -7.9512    1.4077  -19.6402 O   0  0  0  0  0  0  0  0  0  0  0  0
  -10.1391    2.0299  -19.7580 N   0  0  0  0  0  0  0  0  0  0  0  0
  -10.6009    0.6596  -19.4475 C   0  0  2  0  0  0  0  0  0  0  0  0
  -10.1287    0.2220  -18.0902 C   0  0  0  0  0  0  0  0  0  0  0  0
  -10.4932   -1.2536  -17.7662 C   0  0  0  0  0  0  0  0  0  0  0  0
  -10.0475   -2.1534  -18.8706 N   0  0  0  0  0  0  0  0  0  0  0  0
  -10.6470   -1.7932  -20.1833 C   0  0  0  0  0  0  0  0  0  0  0  0
  -10.1747   -0.3406  -20.5732 C   0  0  0  0  0  0  0  0  0  0  0  0
  -10.9991    2.9826  -19.9564 N   0  0  0  0  0  0  0  0  0  0  0  0
  -10.6766    4.2418  -19.8621 C   0  0  0  0  0  0  0  0  0  0  0  0
  -11.7067    5.2126  -19.4017 C   0  0  0  0  0  0  0  0  0  0  0  0
  -11.7942    5.5620  -18.0418 C   0  0  0  0  0  0  0  0  0  0  0  0
  -12.4045    6.7486  -17.6475 C   0  0  0  0  0  0  0  0  0  0  0  0
  -12.9960    7.5495  -18.5992 C   0  0  0  0  0  0  0  0  0  0  0  0
  -13.0681    7.1309  -19.9605 C   0  0  0  0  0  0  0  0  0  0  0  0
  -12.4043    5.9272  -20.3043 C   0  0  0  0  0  0  0  0  0  0  0  0
 14 13  4  0
 13  6  4  0
 14  2  4  0
 15 14  1  0
  2  3  4  0
  2  1  1  0
  3  4  4  0
  7  6  1  1
  7  8  1  0
  7 12  1  0
  8  9  1  0
  9 10  1  0
 16 17  4  0
 16 15  4  0
 17 18  4  0
 18 19  4  0
  6  4  4  0
  4  5  2  0
 15 20  4  0
 20 19  4  0
 10 11  1  0
 12 11  1  0
M  CHG  1  10   1
M  END
$$$$
