
     RDKit          3D

 18 20  0  0  0  0  0  0  0  0999 V2000
   -5.2628    5.2053  -16.5195 C   0  0  0  0  0  0  0  0  0  0  0  0
   -5.2107    5.5085  -17.9511 N   0  0  0  0  0  0  0  0  0  0  0  0
   -4.0993    5.2148  -18.7756 C   0  0  0  0  0  0  0  0  0  0  0  0
   -3.9877    6.1193  -19.7248 N   0  0  0  0  0  0  0  0  0  0  0  0
   -4.9174    7.1303  -19.4309 C   0  0  0  0  0  0  0  0  0  0  0  0
   -4.4338    8.5354  -19.3185 C   0  0  0  0  0  0  0  0  0  0  0  0
   -3.3046    8.7882  -18.5335 C   0  0  0  0  0  0  0  0  0  0  0  0
   -2.2544    9.5546  -18.9873 C   0  0  0  0  0  0  0  0  0  0  0  0
   -2.4266   10.3488  -20.1670 C   0  0  0  0  0  0  0  0  0  0  0  0
   -3.6364   10.2632  -20.8359 C   0  0  0  0  0  0  0  0  0  0  0  0
   -4.6568    9.4391  -20.3768 C   0  0  0  0  0  0  0  0  0  0  0  0
   -5.9496    6.5259  -18.6432 C   0  0  0  0  0  0  0  0  0  0  0  0
   -7.3862    6.3917  -19.0378 C   0  0  0  0  0  0  0  0  0  0  0  0
   -8.2530    5.8108  -18.0305 C   0  0  0  0  0  0  0  0  0  0  0  0
   -9.0266    4.7228  -18.4705 C   0  0  0  0  0  0  0  0  0  0  0  0
   -9.2123    4.4043  -19.7010 N   0  0  0  0  0  0  0  0  0  0  0  0
   -8.5313    5.1430  -20.6556 C   0  0  0  0  0  0  0  0  0  0  0  0
   -7.7477    6.2097  -20.3487 C   0  0  0  0  0  0  0  0  0  0  0  0
  2 12  4  0
  2  1  1  0
  3  2  4  0
  4  5  4  0
  4  3  4  0
  5 12  4  0
  5  6  1  0
 12 13  1  0
  6  7  4  0
  6 11  4  0
 13 14  4  0
 13 18  4  0
  7  8  4  0
  8  9  4  0
  9 10  4  0
 14 15  4  0
 15 16  4  0
 16 17  4  0
 17 18  4  0
 10 11  4  0
M  END
$$$$
