
     RDKit          3D

 18 20  0  0  0  0  0  0  0  0999 V2000
   -2.8390    7.4270  -17.4350 C   0  0  0  0  0  0  0  0  0  0  0  0
   -3.4390    7.2170  -18.7500 N   0  0  0  0  0  0  0  0  0  0  0  0
   -4.1050    6.1110  -19.1560 C   0  0  0  0  0  0  0  0  0  0  0  0
   -4.5600    6.2050  -20.3790 N   0  0  0  0  0  0  0  0  0  0  0  0
   -4.1690    7.4560  -20.8410 C   0  0  0  0  0  0  0  0  0  0  0  0
   -4.5280    7.8770  -22.2130 C   0  0  0  0  0  0  0  0  0  0  0  0
   -5.8380    7.7340  -22.6810 C   0  0  0  0  0  0  0  0  0  0  0  0
   -6.1700    8.1220  -23.9700 C   0  0  0  0  0  0  0  0  0  0  0  0
   -5.2060    8.6550  -24.8080 C   0  0  0  0  0  0  0  0  0  0  0  0
   -3.9040    8.7960  -24.3560 C   0  0  0  0  0  0  0  0  0  0  0  0
   -3.5630    8.4090  -23.0700 C   0  0  0  0  0  0  0  0  0  0  0  0
   -3.4420    8.1110  -19.8690 C   0  0  0  0  0  0  0  0  0  0  0  0
   -2.8360    9.4600  -19.8500 C   0  0  0  0  0  0  0  0  0  0  0  0
   -3.5730   10.5790  -20.2500 C   0  0  0  0  0  0  0  0  0  0  0  0
   -2.9670   11.8200  -20.2200 C   0  0  0  0  0  0  0  0  0  0  0  0
   -1.7120   12.0210  -19.8000 N   0  0  0  0  0  0  0  0  0  0  0  0
   -1.0080   10.9400  -19.4370 C   0  0  0  0  0  0  0  0  0  0  0  0
   -1.5220    9.6540  -19.4390 C   0  0  0  0  0  0  0  0  0  0  0  0
  2 12  1  0
  2  1  1  0
  3  2  1  0
  4  5  1  0
  4  3  2  0
  5 12  2  0
  5  6  1  0
 12 13  1  0
  6  7  2  0
  6 11  1  0
 13 14  1  0
 13 18  2  0
  7  8  1  0
  8  9  2  0
  9 10  1  0
 14 15  2  0
 15 16  1  0
 16 17  2  0
 17 18  1  0
 10 11  2  0
M  END
$$$$
