
     RDKit          3D

 27 30  0  0  0  0  0  0  0  0999 V2000
   -7.0254    6.8359  -22.2673 C   0  0  0  0  0  0  0  0  0  0  0  0
   -6.8651    5.3838  -22.5787 C   0  0  0  0  0  0  0  0  0  0  0  0
   -6.8786    4.9161  -23.8844 C   0  0  0  0  0  0  0  0  0  0  0  0
   -6.3618    3.7175  -24.3169 C   0  0  0  0  0  0  0  0  0  0  0  0
   -6.3437    3.2574  -25.7331 C   0  0  0  0  0  0  0  0  0  0  0  0
   -6.3529    1.8364  -25.9271 N   0  0  0  0  0  0  0  0  0  0  0  0
   -5.7128    2.9141  -23.3490 C   0  0  0  0  0  0  0  0  0  0  0  0
   -5.5964    3.3332  -22.0044 C   0  0  0  0  0  0  0  0  0  0  0  0
   -4.5196    2.6888  -21.1600 C   0  0  0  0  0  0  0  0  0  0  0  0
   -6.2978    4.4766  -21.6102 C   0  0  0  0  0  0  0  0  0  0  0  0
   -6.8709    4.5275  -20.2244 C   0  0  0  0  0  0  0  0  0  0  0  0
   -7.5048    3.4085  -19.7885 N   0  0  0  0  0  0  0  0  0  0  0  0
   -6.9109    3.0163  -18.6736 C   0  0  0  0  0  0  0  0  0  0  0  0
   -5.9524    3.9056  -18.3049 N   0  0  0  0  0  0  0  0  0  0  0  0
   -4.6789    3.5371  -17.6590 C   0  0  0  0  0  0  0  0  0  0  0  0
   -6.2812    5.0848  -19.1102 C   0  0  0  0  0  0  0  0  0  0  0  0
   -6.5433    6.3950  -18.4598 C   0  0  0  0  0  0  0  0  0  0  0  0
   -5.6778    7.4316  -18.7109 C   0  0  0  0  0  0  0  0  0  0  0  0
   -6.0269    8.7213  -18.2786 C   0  0  0  0  0  0  0  0  0  0  0  0
   -7.2047    9.0270  -17.7204 N   0  0  0  0  0  0  0  0  0  0  0  0
   -8.0601    8.0036  -17.4591 C   0  0  0  0  0  0  0  0  0  0  0  0
   -9.3775    8.3571  -17.0038 C   0  0  0  0  0  0  0  0  0  0  0  0
  -10.2680    7.3740  -16.8468 C   0  0  0  0  0  0  0  0  0  0  0  0
  -11.5841    7.6792  -16.8329 F   0  0  0  0  0  0  0  0  0  0  0  0
   -9.9386    6.0153  -16.8722 C   0  0  0  0  0  0  0  0  0  0  0  0
   -8.7035    5.6629  -17.3790 C   0  0  0  0  0  0  0  0  0  0  0  0
   -7.7491    6.6380  -17.6892 C   0  0  0  0  0  0  0  0  0  0  0  0
  3  4  4  0
  4  5  1  0
  4  7  4  0
  2  3  4  0
 10  2  4  0
  2  1  1  0
  5  6  1  0
 16 11  4  0
 11 10  1  0
 11 12  4  0
 17 16  1  0
 16 14  4  0
 14 15  1  0
 19 18  4  0
 20 19  4  0
 27 21  4  0
 21 22  4  0
 21 20  4  0
 27 26  4  0
 27 17  4  0
 26 25  4  0
 25 23  4  0
 23 22  4  0
 23 24  1  0
 10  8  4  0
 12 13  4  0
 13 14  4  0
 17 18  4  0
  8  9  1  0
  8  7  4  0
M  CHG  1   6   1
M  END
$$$$
