
     RDKit          3D

 29 31  0  0  0  0  0  0  0  0999 V2000
   -8.7726    9.9219   24.2185 C   0  0  0  0  0  0  0  0  0  0  0  0
   -8.5210    8.8347   23.0846 C   0  0  2  0  0  0  0  0  0  0  0  0
   -7.8167    7.5714   23.7075 C   0  0  0  0  0  0  0  0  0  0  0  0
   -7.6877    9.4223   21.9447 C   0  0  0  0  0  0  0  0  0  0  0  0
   -8.6497    9.8325   20.7913 C   0  0  0  0  0  0  0  0  0  0  0  0
   -8.3315   11.1937   20.2863 N   0  0  0  0  0  0  0  0  0  0  0  0
   -9.3658   12.0791   20.1658 C   0  0  0  0  0  0  0  0  0  0  0  0
  -10.6409   11.6280   20.3869 N   0  0  0  0  0  0  0  0  0  0  0  0
  -11.7353   12.3975   20.2741 C   0  0  0  0  0  0  0  0  0  0  0  0
  -12.9765   12.0001   20.7154 N   0  0  0  0  0  0  0  0  0  0  0  0
  -13.3084   11.1986   21.7832 C   0  0  0  0  0  0  0  0  0  0  0  0
  -14.4524   11.6022   22.4807 C   0  0  0  0  0  0  0  0  0  0  0  0
  -14.9319   10.8112   23.5692 C   0  0  0  0  0  0  0  0  0  0  0  0
  -15.6944   11.3251   24.4497 F   0  0  0  0  0  0  0  0  0  0  0  0
  -14.3572    9.5552   23.7709 C   0  0  0  0  0  0  0  0  0  0  0  0
  -15.1287    8.5679   24.3427 O   0  0  0  0  0  0  0  0  0  0  0  0
  -13.1370    9.2407   23.1546 C   0  0  0  0  0  0  0  0  0  0  0  0
  -12.3030    8.3953   23.7731 F   0  0  0  0  0  0  0  0  0  0  0  0
  -12.6739    9.9965   22.0717 C   0  0  0  0  0  0  0  0  0  0  0  0
  -11.5798   13.6745   19.9073 N   0  0  0  0  0  0  0  0  0  0  0  0
  -10.3745   14.1861   19.5477 C   0  0  0  0  0  0  0  0  0  0  0  0
   -9.2050   13.3882   19.6241 C   0  0  0  0  0  0  0  0  0  0  0  0
   -7.9045   13.8871   19.4338 N   0  0  0  0  0  0  0  0  0  0  0  0
   -7.7389   15.2647   18.8394 C   0  0  0  0  0  0  0  0  0  0  0  0
   -6.8071   13.0457   19.5538 C   0  0  0  0  0  0  0  0  0  0  0  0
   -5.6523   13.4669   19.6392 O   0  0  0  0  0  0  0  0  0  0  0  0
   -7.0177   11.5314   19.7450 C   0  0  1  0  0  0  0  0  0  0  0  0
   -5.8402   11.0137   20.6029 C   0  0  0  0  0  0  0  0  0  0  0  0
   -6.9408   10.9742   18.2999 C   0  0  0  0  0  0  0  0  0  0  0  0
  9 20  4  0
  8  9  4  0
  9 10  1  0
  2  1  1  6
  2  3  1  0
 27 25  1  0
 27 28  1  1
 27 29  1  0
  6 27  1  0
 25 23  1  0
 25 26  2  0
 19 17  4  0
 11 19  4  0
 17 15  4  0
 17 18  1  0
 13 15  4  0
 15 16  1  0
 12 13  4  0
 13 14  1  0
 11 12  4  0
 10 11  1  0
 23 24  1  0
 21 20  4  0
  7  8  4  0
  7 22  4  0
  6  7  1  0
 22 21  4  0
 22 23  1  0
  5  6  1  0
  4  5  1  0
  4  2  1  0
M  END
$$$$
