
     RDKit          3D

 19 19  0  0  0  0  0  0  0  0999 V2000
   19.2846   -5.5863  -16.9476 C   0  0  0  0  0  0  0  0  0  0  0  0
   19.2453   -4.8595  -15.6193 C   0  0  0  0  0  0  0  0  0  0  0  0
   19.2879   -3.3613  -15.8224 C   0  0  0  0  0  0  0  0  0  0  0  0
   20.6829   -2.8651  -15.7838 C   0  0  0  0  0  0  0  0  0  0  0  0
   20.6740   -1.4005  -15.6020 N   0  0  0  0  0  0  0  0  0  0  0  0
   19.6147   -0.6805  -15.9439 C   0  0  0  0  0  0  0  0  0  0  0  0
   18.5145   -0.9422  -15.4492 O   0  0  0  0  0  0  0  0  0  0  0  0
   19.7765    0.5431  -16.7350 C   0  0  0  0  0  0  0  0  0  0  0  0
   19.9566    1.7551  -16.0714 C   0  0  0  0  0  0  0  0  0  0  0  0
   20.2263    2.9095  -16.7035 C   0  0  0  0  0  0  0  0  0  0  0  0
   20.9427    4.2571  -15.6898 S   0  0  2  0  0  0  0  0  0  0  0  0
   20.9250    4.0579  -14.0838 N   0  0  0  0  0  0  0  0  0  0  0  0
   20.1461    5.4450  -15.9803 O   0  0  0  0  0  0  0  0  0  0  0  0
   22.3229    4.3940  -16.1115 O   0  0  0  0  0  0  0  0  0  0  0  0
   20.1450    2.9658  -18.0774 C   0  0  0  0  0  0  0  0  0  0  0  0
   20.1465    4.4691  -18.8973 Cl  0  0  0  0  0  0  0  0  0  0  0  0
   19.9036    1.7906  -18.8045 C   0  0  0  0  0  0  0  0  0  0  0  0
   19.7761    0.5947  -18.1250 C   0  0  0  0  0  0  0  0  0  0  0  0
   19.7327   -0.8396  -19.1484 Cl  0  0  0  0  0  0  0  0  0  0  0  0
  9  8  4  0
  9 10  4  0
  8  6  1  0
  8 18  4  0
 10 15  4  0
 10 11  1  0
 18 17  4  0
 17 15  4  0
  6  7  2  0
  6  5  1  0
  5  4  1  0
  4  3  1  0
  3  2  1  0
  2  1  1  0
 18 19  1  0
 15 16  1  0
 11 13  2  0
 11 14  2  0
 11 12  1  6
M  END
$$$$
