
     RDKit          3D

 17 17  0  0  0  0  0  0  0  0999 V2000
    8.3830   36.0017   47.0049 N   0  0  0  0  0  0  0  0  0  0  0  0
    9.4928   36.0852   46.2036 C   0  0  0  0  0  0  0  0  0  0  0  0
   10.1890   35.0907   46.1003 O   0  0  0  0  0  0  0  0  0  0  0  0
    9.4808   37.1931   45.1808 C   0  0  2  0  0  0  0  0  0  0  0  0
    8.3831   38.1757   45.3924 C   0  0  0  0  0  0  0  0  0  0  0  0
    7.0134   37.6157   44.9615 C   0  0  0  0  0  0  0  0  0  0  0  0
    7.0930   37.0949   43.5170 C   0  0  1  0  0  0  0  0  0  0  0  0
    7.4533   38.1442   42.5982 N   0  0  0  0  0  0  0  0  0  0  0  0
    7.7588   39.2938   43.2332 O   0  0  0  0  0  0  0  0  0  0  0  0
    7.6922   40.6751   42.5665 S   0  0  2  0  0  0  0  0  0  0  0  0
    8.7508   40.8048   41.5190 O   0  0  0  0  0  0  0  0  0  0  0  0
    7.9549   41.7510   43.5645 O   0  0  0  0  0  0  0  0  0  0  0  0
    6.3428   40.8585   41.9588 O   0  0  0  0  0  0  0  0  0  0  0  0
    8.1012   35.9849   43.5381 C   0  0  0  0  0  0  0  0  0  0  0  0
    9.3766   36.6229   43.8794 N   0  0  0  0  0  0  0  0  0  0  0  0
   10.3228   36.9133   42.9978 C   0  0  0  0  0  0  0  0  0  0  0  0
   11.5135   36.8293   43.3393 O   0  0  0  0  0  0  0  0  0  0  0  0
 17 16  2  0
 16 15  1  0
 15 14  1  0
 15  4  1  0
 14  7  1  0
  4  2  1  1
  4  5  1  0
  2  3  2  0
  2  1  1  0
  5  6  1  0
  6  7  1  0
  7  8  1  6
  8  9  1  0
  9 10  1  0
 10 11  2  0
 10 12  2  0
 10 13  1  1
M  CHG  1   8   1
M  END
$$$$
