
     RDKit          3D

 40 42  0  0  0  0  0  0  0  0999 V2000
   15.2524  -15.8018   16.1261 H   0  0  0  0  0  0  0  0  0  0  0  0
   15.8570  -16.6230   16.1470 N   0  0  0  0  0  0  0  0  0  0  0  0
   16.0870  -17.2380   17.2800 C   0  0  0  0  0  0  0  0  0  0  0  0
   16.9000  -18.3760   17.4380 N   0  0  0  0  0  0  0  0  0  0  0  0
   15.4800  -16.7470   18.4990 N   0  0  0  0  0  0  0  0  0  0  0  0
   15.6380  -17.5700   19.6940 C   0  0  0  0  0  0  0  0  0  0  0  0
   16.6420  -16.9950   20.6900 C   0  0  0  0  0  0  0  0  0  0  0  0
   16.1270  -15.7040   21.3280 C   0  0  0  0  0  0  0  0  0  0  0  0
   17.0640  -14.9520   22.2950 C   0  0  2  0  0  0  0  0  0  0  0  0
   16.6660  -15.2160   23.6680 N   0  0  0  0  0  0  0  0  0  0  0  0
   17.3640  -16.3720   24.5640 S   0  0  1  0  0  0  0  0  0  0  0  0
   16.3170  -17.0130   25.3040 O   0  0  0  0  0  0  0  0  0  0  0  0
   18.1860  -17.1570   23.6880 O   0  0  0  0  0  0  0  0  0  0  0  0
   18.3830  -15.5210   25.7590 C   0  0  0  0  0  0  0  0  0  0  0  0
   19.4850  -14.7200   25.1270 C   0  0  0  0  0  0  0  0  0  0  0  0
   20.5630  -15.3480   24.5160 C   0  0  0  0  0  0  0  0  0  0  0  0
   21.5800  -14.6050   23.9380 C   0  0  0  0  0  0  0  0  0  0  0  0
   21.5320  -13.2270   23.9630 C   0  0  0  0  0  0  0  0  0  0  0  0
   20.4660  -12.5900   24.5630 C   0  0  0  0  0  0  0  0  0  0  0  0
   19.4500  -13.3300   25.1420 C   0  0  0  0  0  0  0  0  0  0  0  0
   16.8860  -13.4370   22.1000 C   0  0  0  0  0  0  0  0  0  0  0  0
   15.9830  -12.8170   22.6490 O   0  0  0  0  0  0  0  0  0  0  0  0
   17.7930  -12.8110   21.3400 N   0  0  0  0  0  0  0  0  0  0  0  0
   19.0270  -13.4000   20.7870 C   0  0  0  0  0  0  0  0  0  0  0  0
   19.6810  -12.2340   20.0780 C   0  0  0  0  0  0  0  0  0  0  0  0
   18.4940  -11.3610   19.6320 C   0  0  0  0  0  0  0  0  0  0  0  0
   17.5200  -11.4690   20.8120 C   0  0  1  0  0  0  0  0  0  0  0  0
   16.0700  -11.3490   20.3510 C   0  0  0  0  0  0  0  0  0  0  0  0
   15.5160  -12.2450   19.7130 O   0  0  0  0  0  0  0  0  0  0  0  0
   15.4600  -10.2130   20.6870 N   0  0  0  0  0  0  0  0  0  0  0  0
   14.0660   -9.9460   20.3600 C   0  0  0  0  0  0  0  0  0  0  0  0
   13.1690   -9.9550   21.5750 C   0  0  0  0  0  0  0  0  0  0  0  0
   13.0960   -8.8360   22.4030 C   0  0  0  0  0  0  0  0  0  0  0  0
   12.2290   -8.8230   23.4700 C   0  0  0  0  0  0  0  0  0  0  0  0
   12.1820   -7.4180   24.5030 Cl  0  0  0  0  0  0  0  0  0  0  0  0
   11.4120   -9.8920   23.7440 C   0  0  0  0  0  0  0  0  0  0  0  0
   11.4930  -11.0170   22.9430 C   0  0  0  0  0  0  0  0  0  0  0  0
   12.3700  -11.0750   21.8640 C   0  0  0  0  0  0  0  0  0  0  0  0
   12.4610  -12.3800   21.0450 C   0  0  0  0  0  0  0  0  0  0  0  0
   13.0520  -13.4890   21.8440 N   0  0  0  0  0  0  0  0  0  0  0  0
 21 22  2  0
 28 29  2  0
 15 20  2  0
 20 19  1  0
 27 28  1  6
 27 26  1  0
 23 27  1  0
 32 33  1  0
 32 38  2  0
 31 32  1  0
 34 35  1  0
 33 34  2  0
 34 36  1  0
 37 36  2  0
 38 37  1  0
 38 39  1  0
 39 40  1  0
 30 31  1  0
 28 30  1  0
 25 26  1  0
 24 25  1  0
 23 24  1  0
 21 23  1  0
  9 21  1  0
  9  8  1  6
 10  9  1  0
  8  7  1  0
  7  6  1  0
  6  5  1  0
  5  3  1  0
  3  4  1  0
  3  2  2  0
 11 10  1  0
 11 12  2  0
 11 13  2  0
 11 14  1  1
 14 15  1  0
 15 16  1  0
 16 17  2  0
 17 18  1  0
 18 19  2  0
  2  1  1  0
M  CHG  1  40   1
M  END
$$$$
