
     RDKit          3D

 19 21  0  0  0  0  0  0  0  0999 V2000
   91.3207   91.8634  -40.1675 C   0  0  0  0  0  0  0  0  0  0  0  0
   92.3038   92.5165  -41.2383 C   0  0  0  0  0  0  0  0  0  0  0  0
   91.5656   93.4793  -42.0584 N   0  0  0  0  0  0  0  0  0  0  0  0
   91.3628   94.8046  -41.7788 C   0  0  0  0  0  0  0  0  0  0  0  0
   91.3408   95.4647  -40.5469 C   0  0  0  0  0  0  0  0  0  0  0  0
   91.3080   96.8836  -40.5364 C   0  0  0  0  0  0  0  0  0  0  0  0
   91.3109   97.6376  -41.7321 C   0  0  0  0  0  0  0  0  0  0  0  0
   91.2911   99.1227  -41.7522 C   0  0  0  0  0  0  0  0  0  0  0  0
   89.8874   99.6506  -41.7312 N   0  0  0  0  0  0  0  0  0  0  0  0
   89.7636  101.1373  -41.7314 C   0  0  0  0  0  0  0  0  0  0  0  0
   91.2975   96.9392  -42.9753 C   0  0  0  0  0  0  0  0  0  0  0  0
   91.3703   95.5131  -43.0035 C   0  0  0  0  0  0  0  0  0  0  0  0
   91.3830   94.5953  -44.0165 C   0  0  0  0  0  0  0  0  0  0  0  0
   91.3800   94.6883  -45.4026 C   0  0  0  0  0  0  0  0  0  0  0  0
   91.3860   93.4640  -46.1878 C   0  0  0  0  0  0  0  0  0  0  0  0
   91.3888   92.2635  -45.5490 C   0  0  0  0  0  0  0  0  0  0  0  0
   91.4409   90.6277  -46.5298 Br  0  0  0  0  0  0  0  0  0  0  0  0
   91.4453   92.1420  -44.1694 C   0  0  0  0  0  0  0  0  0  0  0  0
   91.4044   93.2995  -43.3771 C   0  0  0  0  0  0  0  0  0  0  0  0
 14 15  4  0
 14 13  4  0
 15 16  4  0
 16 18  4  0
 16 17  1  0
 18 19  4  0
 19 13  4  0
 19  3  4  0
 13 12  4  0
  3  4  4  0
  3  2  1  0
 12  4  4  0
 12 11  4  0
  4  5  4  0
 11  7  4  0
  5  6  4  0
  6  7  4  0
  7  8  1  0
  2  1  1  0
  8  9  1  0
  9 10  1  0
M  CHG  1   9   1
M  END
$$$$
