
     RDKit          3D

 23 26  0  0  0  0  0  0  0  0999 V2000
   90.8083   92.0621  -40.6168 C   0  0  0  0  0  0  0  0  0  0  0  0
   91.7280   92.6678  -41.6627 C   0  0  0  0  0  0  0  0  0  0  0  0
   91.2765   93.9673  -42.1171 N   0  0  0  0  0  0  0  0  0  0  0  0
   91.2474   95.1252  -41.3595 C   0  0  0  0  0  0  0  0  0  0  0  0
   91.1940   95.3173  -39.9793 C   0  0  0  0  0  0  0  0  0  0  0  0
   91.1670   96.6476  -39.4926 C   0  0  0  0  0  0  0  0  0  0  0  0
   91.1076   97.7131  -40.3787 C   0  0  0  0  0  0  0  0  0  0  0  0
   90.9143   99.1170  -39.8383 C   0  0  0  0  0  0  0  0  0  0  0  0
   89.5885   99.7262  -40.2067 N   0  0  0  0  0  0  0  0  0  0  0  0
   89.5984  101.1995  -40.2503 C   0  0  0  0  0  0  0  0  0  0  0  0
   91.2066   97.5182  -41.7482 C   0  0  0  0  0  0  0  0  0  0  0  0
   91.2366   96.2121  -42.2589 C   0  0  0  0  0  0  0  0  0  0  0  0
   91.1846   95.6828  -43.5737 C   0  0  0  0  0  0  0  0  0  0  0  0
   91.3539   96.2386  -44.8631 C   0  0  0  0  0  0  0  0  0  0  0  0
   91.3690   95.3810  -45.9728 C   0  0  0  0  0  0  0  0  0  0  0  0
   91.0059   94.0092  -45.8499 C   0  0  0  0  0  0  0  0  0  0  0  0
   90.0591   93.4420  -46.7687 C   0  0  0  0  0  0  0  0  0  0  0  0
   88.7530   93.8952  -47.2393 C   0  0  0  0  0  0  0  0  0  0  0  0
   88.5927   93.6488  -48.5209 N   0  0  0  0  0  0  0  0  0  0  0  0
   89.6011   92.7959  -48.8948 O   0  0  0  0  0  0  0  0  0  0  0  0
   90.4234   92.5769  -47.8123 C   0  0  0  0  0  0  0  0  0  0  0  0
   91.1373   93.4426  -44.5616 C   0  0  0  0  0  0  0  0  0  0  0  0
   91.1482   94.2764  -43.4532 C   0  0  0  0  0  0  0  0  0  0  0  0
 23  3  4  0
  3  4  4  0
  3  2  1  0
  8  9  1  0
  9 10  1  0
 22 23  4  0
 16 22  4  0
 23 13  4  0
 13 12  4  0
 13 14  4  0
 12  4  4  0
  4  5  4  0
 12 11  4  0
 11  7  4  0
  7  6  4  0
  7  8  1  0
  2  1  1  0
 17 18  4  0
 17 16  1  0
 17 21  4  0
 18 19  4  0
 14 15  4  0
 15 16  4  0
  6  5  4  0
 21 20  4  0
 20 19  4  0
M  CHG  1   9   1
M  END
$$$$
