
     RDKit          3D

 24 27  0  0  0  0  0  0  0  0999 V2000
   93.4290   92.8220  -41.6510 C   0  0  0  0  0  0  0  0  0  0  0  0
   91.9240   93.1030  -41.6830 C   0  0  0  0  0  0  0  0  0  0  0  0
   91.6150   94.2960  -42.4500 N   0  0  0  0  0  0  0  0  0  0  0  0
   91.5550   95.6170  -41.9930 C   0  0  0  0  0  0  0  0  0  0  0  0
   91.7770   96.1520  -40.7100 C   0  0  0  0  0  0  0  0  0  0  0  0
   91.6680   97.5380  -40.5150 C   0  0  0  0  0  0  0  0  0  0  0  0
   91.3220   98.4030  -41.5830 C   0  0  0  0  0  0  0  0  0  0  0  0
   91.2020   99.8980  -41.3670 C   0  0  0  0  0  0  0  0  0  0  0  0
   89.8350  100.2520  -40.9400 N   0  0  0  0  0  0  0  0  0  0  0  0
   89.6330  101.7000  -40.6930 C   0  0  0  0  0  0  0  0  0  0  0  0
   91.1110   97.8660  -42.8680 C   0  0  0  0  0  0  0  0  0  0  0  0
   91.2220   96.4770  -43.0800 C   0  0  0  0  0  0  0  0  0  0  0  0
   91.0710   95.6460  -44.2280 C   0  0  0  0  0  0  0  0  0  0  0  0
   90.7510   95.8840  -45.5760 C   0  0  0  0  0  0  0  0  0  0  0  0
   90.6760   94.8140  -46.4790 C   0  0  0  0  0  0  0  0  0  0  0  0
   90.9120   93.4810  -46.0760 C   0  0  0  0  0  0  0  0  0  0  0  0
   90.8510   92.3790  -47.0420 C   0  0  0  0  0  0  0  0  0  0  0  0
   90.4480   92.3930  -48.3560 C   0  0  0  0  0  0  0  0  0  0  0  0
   90.5570   91.1230  -48.9900 C   0  0  0  0  0  0  0  0  0  0  0  0
   91.0520   90.1450  -48.1670 C   0  0  0  0  0  0  0  0  0  0  0  0
   91.2870   88.7140  -48.5270 C   0  0  0  0  0  0  0  0  0  0  0  0
   91.3920   90.7860  -46.5790 S   0  0  0  0  0  0  0  0  0  0  0  0
   91.2510   93.2450  -44.7270 C   0  0  0  0  0  0  0  0  0  0  0  0
   91.3170   94.3100  -43.8110 C   0  0  0  0  0  0  0  0  0  0  0  0
  3  4  1  0
  3 24  1  0
  3  2  1  0
  4 12  2  0
  4  5  1  0
 12 11  1  0
 12 13  1  0
 11  7  2  0
  7  6  1  0
  7  8  1  0
  6  5  2  0
  8  9  1  0
 24 13  2  0
 24 23  1  0
 13 14  1  0
 14 15  2  0
 15 16  1  0
 16 23  2  0
 16 17  1  0
  2  1  1  0
 17 18  2  0
 17 22  1  0
 18 19  1  0
 19 20  2  0
 20 22  1  0
 20 21  1  0
  9 10  1  0
M  CHG  1   9   1
M  END
$$$$
