
     RDKit          3D

 24 27  0  0  0  0  0  0  0  0999 V2000
   93.5850   92.8100  -41.7300 C   0  0  0  0  0  0  0  0  0  0  0  0
   92.0690   93.0080  -41.8240 C   0  0  0  0  0  0  0  0  0  0  0  0
   91.7420   94.2170  -42.5510 N   0  0  0  0  0  0  0  0  0  0  0  0
   91.6890   95.5270  -42.0670 C   0  0  0  0  0  0  0  0  0  0  0  0
   91.9380   96.0220  -40.7700 C   0  0  0  0  0  0  0  0  0  0  0  0
   91.8380   97.4020  -40.5300 C   0  0  0  0  0  0  0  0  0  0  0  0
   91.4630   98.2820  -41.5760 C   0  0  0  0  0  0  0  0  0  0  0  0
   91.3490   99.7690  -41.3330 C   0  0  0  0  0  0  0  0  0  0  0  0
   89.9550  100.1580  -41.0500 N   0  0  0  0  0  0  0  0  0  0  0  0
   89.7910  101.5980  -40.7520 C   0  0  0  0  0  0  0  0  0  0  0  0
   91.2240   97.7910  -42.8740 C   0  0  0  0  0  0  0  0  0  0  0  0
   91.3320   96.4110  -43.1280 C   0  0  0  0  0  0  0  0  0  0  0  0
   91.1590   95.5970  -44.2920 C   0  0  0  0  0  0  0  0  0  0  0  0
   90.8140   95.8500  -45.6300 C   0  0  0  0  0  0  0  0  0  0  0  0
   90.7270   94.7790  -46.5400 C   0  0  0  0  0  0  0  0  0  0  0  0
   90.9850   93.4430  -46.1590 C   0  0  0  0  0  0  0  0  0  0  0  0
   90.8930   92.3670  -47.1530 C   0  0  0  0  0  0  0  0  0  0  0  0
   90.4170   92.4120  -48.4420 C   0  0  0  0  0  0  0  0  0  0  0  0
   90.5010   91.1570  -49.1150 C   0  0  0  0  0  0  0  0  0  0  0  0
   90.0430   90.9440  -50.5240 C   0  0  0  0  0  0  0  0  0  0  0  0
   91.0520   90.1760  -48.3290 C   0  0  0  0  0  0  0  0  0  0  0  0
   91.4710   90.7740  -46.7540 S   0  0  0  0  0  0  0  0  0  0  0  0
   91.3470   93.1930  -44.8180 C   0  0  0  0  0  0  0  0  0  0  0  0
   91.4200   94.2540  -43.9010 C   0  0  0  0  0  0  0  0  0  0  0  0
  3  4  1  0
  3 24  1  0
  3  2  1  0
  4 12  2  0
  4  5  1  0
 12 11  1  0
 12 13  1  0
 11  7  2  0
  7  6  1  0
  7  8  1  0
  6  5  2  0
  8  9  1  0
 24 13  2  0
 24 23  1  0
 13 14  1  0
 14 15  2  0
 15 16  1  0
 16 23  2  0
 16 17  1  0
  2  1  1  0
 17 18  2  0
 17 22  1  0
 18 19  1  0
 19 21  2  0
 19 20  1  0
 21 22  1  0
  9 10  1  0
M  CHG  1   9   1
M  END
$$$$
