
     RDKit          3D

 24 27  0  0  0  0  0  0  0  0999 V2000
   22.1232   31.1985   12.2122 C   0  0  0  0  0  0  0  0  0  0  0  0
   20.7934   31.8036   12.3301 N   0  0  2  0  0  4  0  0  0  0  0  0
   20.8267   32.8097   13.3466 C   0  0  0  0  0  0  0  0  0  0  0  0
   19.7296   30.8123   12.5736 C   0  0  0  0  0  0  0  0  0  0  0  0
   18.3791   31.4249   12.6332 C   0  0  0  0  0  0  0  0  0  0  0  0
   17.2361   30.6506   12.5570 N   0  0  0  0  0  0  0  0  0  0  0  0
   16.1533   31.4953   12.2675 C   0  0  0  0  0  0  0  0  0  0  0  0
   14.8496   31.1661   11.8546 C   0  0  0  0  0  0  0  0  0  0  0  0
   14.1497   32.0758   11.1081 C   0  0  0  0  0  0  0  0  0  0  0  0
   14.6812   33.3789   10.9916 C   0  0  0  0  0  0  0  0  0  0  0  0
   15.8246   33.7654   11.6040 C   0  0  0  0  0  0  0  0  0  0  0  0
   16.6348   32.8207   12.2331 C   0  0  0  0  0  0  0  0  0  0  0  0
   18.0092   32.7610   12.6659 C   0  0  0  0  0  0  0  0  0  0  0  0
   18.9611   33.9364   12.6538 C   0  0  1  0  0  0  0  0  0  0  0  0
   18.7352   34.8392   11.5238 N   0  0  0  0  0  0  0  0  0  0  0  0
   18.2314   36.0312   11.8992 C   0  0  0  0  0  0  0  0  0  0  0  0
   17.5350   36.7253   11.1505 O   0  0  0  0  0  0  0  0  0  0  0  0
   18.2209   36.0508   13.3644 C   0  0  0  0  0  0  0  0  0  0  0  0
   18.0708   37.1397   14.2719 C   0  0  0  0  0  0  0  0  0  0  0  0
   18.6687   37.0570   15.5247 C   0  0  0  0  0  0  0  0  0  0  0  0
   19.4120   35.9289   15.8830 C   0  0  0  0  0  0  0  0  0  0  0  0
   20.5053   36.1181   16.6213 O   0  0  0  0  0  0  0  0  0  0  0  0
   19.3103   34.7870   15.1025 C   0  0  0  0  0  0  0  0  0  0  0  0
   18.7771   34.8710   13.8210 C   0  0  0  0  0  0  0  0  0  0  0  0
 24 23  4  0
 23 21  4  0
 24 18  4  0
 14 24  1  0
 18 19  4  0
 18 16  1  0
 14 13  1  1
 14 15  1  0
 13 12  4  0
 12  7  4  0
 12 11  4  0
  7  8  4  0
  8  9  4  0
  5  4  1  0
  4  2  1  0
  2  1  1  6
 19 20  4  0
 13  5  4  0
  5  6  4  0
  7  6  4  0
 11 10  4  0
  9 10  4  0
 20 21  4  0
  2  3  1  0
 21 22  1  0
 16 15  1  0
 16 17  2  0
M  CHG  1   2   1
M  END
$$$$
