
     RDKit          3D

 39 45  0  0  0  0  0  0  0  0999 V2000
    8.5265   18.8379  -23.6324 C   0  0  0  0  0  0  0  0  0  0  0  0
    8.2745   17.3936  -23.5068 N   0  0  0  0  0  0  0  0  0  0  0  0
    7.3510   16.8004  -22.7599 C   0  0  0  0  0  0  0  0  0  0  0  0
    7.1265   15.5818  -23.1207 N   0  0  0  0  0  0  0  0  0  0  0  0
    8.0883   15.2627  -24.0595 C   0  0  0  0  0  0  0  0  0  0  0  0
    8.3570   13.8772  -24.4916 C   0  0  0  0  0  0  0  0  0  0  0  0
    8.4625   13.0293  -23.3185 N   0  0  0  0  0  0  0  0  0  0  0  0
    8.4146   11.6542  -23.3103 C   0  0  0  0  0  0  0  0  0  0  0  0
    8.4224   11.1730  -22.0115 C   0  0  0  0  0  0  0  0  0  0  0  0
    8.8939   12.2950  -21.2072 C   0  0  0  0  0  0  0  0  0  0  0  0
    9.5603   12.3648  -19.9672 C   0  0  0  0  0  0  0  0  0  0  0  0
   10.3472   13.5142  -19.6607 C   0  0  0  0  0  0  0  0  0  0  0  0
   10.4987   14.5264  -20.6346 C   0  0  0  0  0  0  0  0  0  0  0  0
   11.9052   15.0335  -20.9252 C   0  0  0  0  0  0  0  0  0  0  0  0
   12.4613   14.5638  -22.1907 N   0  0  0  0  0  4  0  0  0  0  0  0
   13.9434   14.4868  -22.1930 C   0  0  0  0  0  0  0  0  0  0  0  0
   14.3717   13.8946  -20.9073 C   0  0  0  0  0  0  0  0  0  0  0  0
   15.6046   13.3554  -20.7314 N   0  0  0  0  0  0  0  0  0  0  0  0
   15.7261   13.0071  -19.4024 C   0  0  0  0  0  0  0  0  0  0  0  0
   16.8685   12.8139  -18.6000 C   0  0  0  0  0  0  0  0  0  0  0  0
   16.6750   12.6904  -17.2435 C   0  0  0  0  0  0  0  0  0  0  0  0
   15.4081   12.6470  -16.6651 C   0  0  0  0  0  0  0  0  0  0  0  0
   14.3121   12.5762  -17.5049 C   0  0  0  0  0  0  0  0  0  0  0  0
   14.4239   12.9352  -18.8781 C   0  0  0  0  0  0  0  0  0  0  0  0
   13.6661   13.8654  -19.7215 C   0  0  0  0  0  0  0  0  0  0  0  0
   12.8282   15.0472  -19.1230 C   0  0  1  0  0  0  0  0  0  0  0  0
   12.0316   14.5286  -18.0425 N   0  0  0  0  0  0  0  0  0  0  0  0
   12.5836   14.7200  -16.8485 C   0  0  0  0  0  0  0  0  0  0  0  0
   12.3598   14.0422  -15.8292 O   0  0  0  0  0  0  0  0  0  0  0  0
   13.7241   15.6003  -17.0412 C   0  0  0  0  0  0  0  0  0  0  0  0
   14.9644   15.6767  -16.4106 C   0  0  0  0  0  0  0  0  0  0  0  0
   16.0793   16.2978  -16.9473 C   0  0  0  0  0  0  0  0  0  0  0  0
   15.8501   17.0330  -18.1777 C   0  0  0  0  0  0  0  0  0  0  0  0
   16.7416   18.0212  -18.4690 O   0  0  0  0  0  0  0  0  0  0  0  0
   14.6825   16.8937  -18.8665 C   0  0  0  0  0  0  0  0  0  0  0  0
   13.6543   16.0712  -18.4162 C   0  0  0  0  0  0  0  0  0  0  0  0
    9.5898   14.5966  -21.6533 C   0  0  0  0  0  0  0  0  0  0  0  0
    8.9360   13.4512  -22.0806 C   0  0  0  0  0  0  0  0  0  0  0  0
    8.8152   16.4128  -24.2929 C   0  0  0  0  0  0  0  0  0  0  0  0
 33 32  4  0
 31 32  4  0
 35 33  4  0
 33 34  1  0
 36 35  4  0
 28 29  2  0
 27 28  1  0
 28 30  1  0
 36 30  4  0
 26 36  1  0
 25 24  4  0
 26 25  1  1
 17 25  4  0
 19 24  4  0
 24 23  4  0
 20 21  4  0
 21 22  4  0
 19 20  4  0
 38 10  4  0
 11 10  4  0
 10  9  4  0
 12 11  4  0
 13 12  4  0
 37 38  4  0
 13 37  4  0
 30 31  4  0
 26 27  1  0
 16 17  1  0
 15 16  1  0
 17 18  4  0
 18 19  4  0
 23 22  4  0
 14 15  1  0
 38  7  4  0
 13 14  1  0
  9  8  4  0
  8  7  4  0
  7  6  1  0
  6  5  1  0
  5 39  4  0
  5  4  4  0
 39  2  4  0
  2  3  4  0
  2  1  1  0
  3  4  4  0
M  CHG  1  15   1
M  END
$$$$
