
     RDKit          3D

 20 21  0  0  0  0  0  0  0  0999 V2000
  140.1374  115.2785   35.5688 C   0  0  0  0  0  0  0  0  0  0  0  0
  139.7363  115.0731   34.1714 O   0  0  0  0  0  0  0  0  0  0  0  0
  138.6673  115.8178   33.7745 C   0  0  0  0  0  0  0  0  0  0  0  0
  137.5938  115.7772   34.3224 O   0  0  0  0  0  0  0  0  0  0  0  0
  138.8225  116.5904   32.4864 C   0  0  0  0  0  0  0  0  0  0  0  0
  137.5126  117.1512   31.8862 C   0  0  0  0  0  0  0  0  0  0  0  0
  136.3251  116.1494   31.8999 C   0  0  0  0  0  0  0  0  0  0  0  0
  135.6394  115.9701   33.1896 N   0  0  0  0  0  0  0  0  0  0  0  0
  134.5270  116.5577   33.5131 C   0  0  0  0  0  0  0  0  0  0  0  0
  133.4734  115.9093   33.7872 O   0  0  0  0  0  0  0  0  0  0  0  0
  134.3752  118.0439   33.1947 C   0  0  0  0  0  0  0  0  0  0  0  0
  133.4482  118.3881   32.2539 C   0  0  0  0  0  0  0  0  0  0  0  0
  132.5748  119.4562   32.5198 C   0  0  0  0  0  0  0  0  0  0  0  0
  132.8971  120.3281   33.5517 C   0  0  0  0  0  0  0  0  0  0  0  0
  134.0179  120.1484   34.3385 N   0  0  0  0  0  0  0  0  0  0  0  0
  134.8189  119.0421   34.1696 C   0  0  0  0  0  0  0  0  0  0  0  0
  135.6839  118.8042   35.0149 O   0  0  0  0  0  0  0  0  0  0  0  0
  131.8515  121.3772   33.8184 C   0  0  0  0  0  0  0  0  0  0  0  0
  130.6365  120.8184   33.0057 C   0  0  0  0  0  0  0  0  0  0  0  0
  131.1425  119.6694   32.0896 C   0  0  0  0  0  0  0  0  0  0  0  0
  9 10  2  0
 11  9  1  0
  9  8  1  0
  7  6  1  0
  8  7  1  0
 14 18  1  0
 14 13  4  0
 15 14  4  0
 20 19  1  0
 13 20  1  0
 16 11  4  0
 16 15  4  0
 16 17  2  0
 19 18  1  0
  6  5  1  0
  5  3  1  0
  3  4  2  0
  3  2  1  0
  2  1  1  0
 11 12  4  0
 12 13  4  0
M  END
$$$$
