
     RDKit          3D

 49 56  0  0  0  0  0  0  0  0999 V2000
   80.2280  203.9380   71.0300 O   0  0  0  0  0  0  0  0  0  0  0  0
   80.7500  204.8640   70.4070 C   0  0  0  0  0  0  0  0  0  0  0  0
   81.8960  205.4120   70.7910 N   0  0  0  0  0  0  0  0  0  0  0  0
   82.3490  206.4240   70.0510 C   0  0  0  0  0  0  0  0  0  0  0  0
   83.2690  207.2850   70.6230 C   0  0  0  0  0  0  0  0  0  0  0  0
   83.7760  208.3510   69.8960 C   0  0  0  0  0  0  0  0  0  0  0  0
   84.6950  209.1950   70.4860 C   0  0  0  0  0  0  0  0  0  0  0  0
   84.0340  210.4160   70.7870 O   0  0  0  0  0  0  0  0  0  0  0  0
   85.0640  211.3570   71.0670 C   0  0  0  0  0  0  0  0  0  0  0  0
   85.9020  211.5970   69.8070 C   0  0  0  0  0  0  0  0  0  0  0  0
   85.4490  212.0930   68.6670 C   0  0  0  0  0  0  0  0  0  0  0  0
   86.5260  212.1320   67.8850 N   0  0  0  0  0  0  0  0  0  0  0  0
   86.5270  212.6220   66.4970 C   0  0  0  0  0  0  0  0  0  0  0  0
   86.3870  214.1320   66.5500 C   0  0  0  0  0  0  0  0  0  0  0  0
   87.6640  214.8400   66.2940 N   0  0  0  0  0  0  0  0  0  0  0  0
   88.2720  215.7030   67.1360 C   0  0  0  0  0  0  0  0  0  0  0  0
   87.5770  216.7490   67.7740 C   0  0  0  0  0  0  0  0  0  0  0  0
   86.2120  217.0180   67.6160 C   0  0  0  0  0  0  0  0  0  0  0  0
   85.5790  218.0610   68.2890 C   0  0  0  0  0  0  0  0  0  0  0  0
   86.3360  218.8720   69.1310 C   0  0  0  0  0  0  0  0  0  0  0  0
   87.6950  218.6250   69.2860 C   0  0  0  0  0  0  0  0  0  0  0  0
   88.3200  217.5720   68.6240 C   0  0  0  0  0  0  0  0  0  0  0  0
   89.6420  217.3660   68.8070 N   0  0  0  0  0  0  0  0  0  0  0  0
   90.3080  216.3660   68.1900 C   0  0  0  0  0  0  0  0  0  0  0  0
   91.4620  216.2110   68.3480 C   0  0  0  0  0  0  0  0  0  0  0  0
   91.9130  215.2650   67.8000 C   0  0  0  0  0  0  0  0  0  0  0  0
   91.4000  214.9740   66.7610 C   0  0  0  0  0  0  0  0  0  0  0  0
   90.2590  214.7080   66.8410 C   0  0  0  0  0  0  0  0  0  0  0  0
   89.6510  215.5390   67.3420 C   0  0  0  0  0  0  0  0  0  0  0  0
   87.5390  211.6970   68.5190 N   0  0  0  0  0  0  0  0  0  0  0  0
   87.2040  211.3550   69.6840 N   0  0  0  0  0  0  0  0  0  0  0  0
   83.3540  208.5750   68.5950 C   0  0  0  0  0  0  0  0  0  0  0  0
   82.4320  207.7070   68.0340 C   0  0  0  0  0  0  0  0  0  0  0  0
   81.9330  206.6330   68.7890 N   0  0  0  0  0  0  0  0  0  0  0  0
   80.2300  205.3840   69.2940 N   0  0  0  0  0  0  0  0  0  0  0  0
   79.0290  205.0220   68.8740 C   0  0  0  0  0  0  0  0  0  0  0  0
   78.5970  203.7420   68.5390 C   0  0  0  0  0  0  0  0  0  0  0  0
   77.2690  203.6280   68.1380 C   0  0  0  0  0  0  0  0  0  0  0  0
   76.4710  204.7760   68.0960 C   0  0  0  0  0  0  0  0  0  0  0  0
   76.9730  205.9730   68.4310 C   0  0  0  0  0  0  0  0  0  0  0  0
   78.2360  206.0810   68.8140 C   0  0  0  0  0  0  0  0  0  0  0  0
   78.5290  207.4180   69.1200 C   0  0  1  0  0  0  0  0  0  0  0  0
   79.2780  208.1140   68.0180 C   0  0  0  0  0  0  0  0  0  0  0  0
   79.6030  209.5570   68.4810 C   0  0  0  0  0  0  0  0  0  0  0  0
   78.6610  210.0210   69.5890 C   0  0  0  0  0  0  0  0  0  0  0  0
   77.2730  209.5510   69.2350 C   0  0  0  0  0  0  0  0  0  0  0  0
   77.3070  208.0850   69.0070 N   0  0  0  0  0  0  0  0  0  0  0  0
   76.4600  207.2030   68.5100 C   0  0  0  0  0  0  0  0  0  0  0  0
   75.2910  207.4830   68.3110 O   0  0  0  0  0  0  0  0  0  0  0  0
 19 20  2  0
 20 21  1  0
 27 26  1  0
 26 25  2  0
 18 19  1  0
 28 27  2  0
 37 38  2  0
 38 39  1  0
 32 33  2  0
 33 34  1  0
 36 37  1  0
 40 39  2  0
  6 32  1  0
 21 22  2  0
 25 24  1  0
 17 18  2  0
 29 28  1  0
  6  5  2  0
  5  4  1  0
 11 10  2  0
 12 11  1  0
 45 44  1  0
 44 43  1  0
 46 45  1  0
 14 13  1  0
 15 14  1  0
 42 43  1  6
 47 46  1  0
 13 12  1  0
  7  6  1  0
  8  7  1  0
 10  9  1  0
  9  8  1  0
  3  2  1  0
  2 35  1  0
  2  1  2  0
 40 48  1  0
 48 47  1  0
 48 49  2  0
 10 31  1  0
  4 34  2  0
  4  3  1  0
 36 41  2  0
 35 36  1  0
 41 40  1  0
 16 17  1  0
 16 29  2  0
 16 15  1  0
 41 42  1  0
 22 17  1  0
 22 23  1  0
 24 29  1  0
 24 23  2  0
 42 47  1  0
 31 30  2  0
 30 12  1  0
M  END
$$$$
