
     RDKit          3D

 50 57  0  0  0  0  0  0  0  0999 V2000
  -39.3790  157.7943   79.6849 C   0  0  0  0  0  0  0  0  0  0  0  0
  -38.3524  158.7781   80.1327 N   0  0  1  0  0  0  0  0  0  0  0  0
  -36.9137  158.5968   79.8155 C   0  0  0  0  0  0  0  0  0  0  0  0
  -36.3083  157.3434   79.8422 C   0  0  0  0  0  0  0  0  0  0  0  0
  -35.0948  157.1494   80.5378 C   0  0  0  0  0  0  0  0  0  0  0  0
  -34.6192  155.8696   80.7604 C   0  0  0  0  0  0  0  0  0  0  0  0
  -35.3030  154.7337   80.1801 N   0  0  0  0  0  0  0  0  0  0  0  0
  -36.5259  154.9298   79.6185 C   0  0  0  0  0  0  0  0  0  0  0  0
  -37.4506  154.0058   79.5443 N   0  0  0  0  0  0  0  0  0  0  0  0
  -38.7346  154.4181   79.4456 C   0  0  0  0  0  0  0  0  0  0  0  0
  -39.6024  153.5559   79.4075 O   0  0  0  0  0  0  0  0  0  0  0  0
  -38.8938  155.7718   79.5645 N   0  0  0  0  0  0  0  0  0  0  0  0
  -38.7319  156.6217   80.6415 C   0  0  0  0  0  0  0  0  0  0  0  0
  -37.5105  156.3105   81.3472 C   0  0  0  0  0  0  0  0  0  0  0  0
  -37.5297  156.2744   82.7365 C   0  0  0  0  0  0  0  0  0  0  0  0
  -38.6977  156.6683   83.3229 C   0  0  0  0  0  0  0  0  0  0  0  0
  -39.7638  157.1628   82.6641 C   0  0  0  0  0  0  0  0  0  0  0  0
  -39.7006  157.3140   81.3217 C   0  0  0  0  0  0  0  0  0  0  0  0
  -40.3662  158.5412   81.0914 C   0  0  1  0  0  0  0  0  0  0  0  0
  -41.4666  158.3668   80.0552 C   0  0  0  0  0  0  0  0  0  0  0  0
  -42.2350  159.7274   79.9498 C   0  0  0  0  0  0  0  0  0  0  0  0
  -42.9219  160.1337   81.2482 C   0  0  0  0  0  0  0  0  0  0  0  0
  -41.9304  160.1013   82.3730 C   0  0  0  0  0  0  0  0  0  0  0  0
  -41.0736  158.8702   82.3043 N   0  0  0  0  0  0  0  0  0  0  0  0
  -40.7907  157.8541   83.1175 C   0  0  0  0  0  0  0  0  0  0  0  0
  -41.6242  157.3849   83.9083 O   0  0  0  0  0  0  0  0  0  0  0  0
  -36.9307  156.2243   79.3678 C   0  0  0  0  0  0  0  0  0  0  0  0
  -38.7434  160.0174   79.5260 C   0  0  0  0  0  0  0  0  0  0  0  0
  -39.7796  160.6310   80.4423 C   0  0  0  0  0  0  0  0  0  0  0  0
  -39.5123  161.1639   81.6079 C   0  0  0  0  0  0  0  0  0  0  0  0
  -40.6935  161.2864   82.2171 N   0  0  0  0  0  0  0  0  0  0  0  0
  -40.9989  161.6483   83.5942 C   0  0  0  0  0  0  0  0  0  0  0  0
  -42.4563  162.0295   83.7748 C   0  0  0  0  0  0  0  0  0  0  0  0
  -42.6577  163.4566   83.5504 N   0  0  0  0  0  0  0  0  0  0  0  0
  -43.2492  164.0758   82.5106 C   0  0  0  0  0  0  0  0  0  0  0  0
  -43.5720  163.2478   81.4194 C   0  0  0  0  0  0  0  0  0  0  0  0
  -43.5339  161.8455   81.5919 C   0  0  0  0  0  0  0  0  0  0  0  0
  -44.6432  161.1471   80.7956 C   0  0  0  0  0  0  0  0  0  0  0  0
  -44.4436  161.6110   79.3304 C   0  0  0  0  0  0  0  0  0  0  0  0
  -44.8443  163.0669   79.2544 C   0  0  0  0  0  0  0  0  0  0  0  0
  -44.1371  163.8081   80.2577 C   0  0  0  0  0  0  0  0  0  0  0  0
  -44.3350  165.1421   80.2982 N   0  0  0  0  0  0  0  0  0  0  0  0
  -44.4116  165.8548   81.3964 C   0  0  0  0  0  0  0  0  0  0  0  0
  -45.3422  166.9157   81.4782 C   0  0  0  0  0  0  0  0  0  0  0  0
  -45.8834  167.2537   82.6800 C   0  0  0  0  0  0  0  0  0  0  0  0
  -45.3072  166.8037   83.8982 C   0  0  0  0  0  0  0  0  0  0  0  0
  -44.2302  165.9823   83.8014 C   0  0  0  0  0  0  0  0  0  0  0  0
  -43.8545  165.3722   82.5838 C   0  0  0  0  0  0  0  0  0  0  0  0
  -41.6242  160.9100   81.3484 N   0  0  0  0  0  0  0  0  0  0  0  0
  -41.0995  160.5160   80.3020 N   0  0  0  0  0  0  0  0  0  0  0  0
 37 38  4  0
 36 37  4  0
 38 39  4  0
 40 39  4  0
 41 40  4  0
 36 41  4  0
 41 42  4  0
 35 36  4  0
 35 48  4  0
 34 35  1  0
 48 43  4  0
 48 47  4  0
 43 44  4  0
 43 42  4  0
 44 45  4  0
 46 45  4  0
 47 46  4  0
 32 33  1  0
 33 34  1  0
 31 32  1  0
 29 30  4  0
 28 29  1  0
 29 50  4  0
 30 31  4  0
  2 28  1  0
  4  3  1  0
  3  2  1  0
  4  5  4  0
 27  4  4  0
  6  5  4  0
  7  6  4  0
  8 27  4  0
  8  7  4  0
  9  8  1  0
 10  9  1  0
 12 10  1  0
 10 11  2  0
 13 18  4  0
 13 14  4  0
 13 12  1  0
 18 17  4  0
 18 19  1  0
 17 16  4  0
 17 25  1  0
 16 15  4  0
 15 14  4  0
 25 24  1  0
 25 26  2  0
 19 20  1  1
 19 24  1  0
 20 21  1  0
 21 22  1  0
 22 23  1  0
 23 24  1  0
  2  1  1  6
 31 49  4  0
 49 50  4  0
M  CHG  1   2   1
M  END
$$$$
