
     RDKit          3D

 46 53  0  0  0  0  0  0  0  0999 V2000
   -9.5290  218.2510   80.2330 O   0  0  0  0  0  0  0  0  0  0  0  0
   -9.6330  218.6540   79.0740 C   0  0  0  0  0  0  0  0  0  0  0  0
   -8.8970  218.1550   78.0500 N   0  0  0  0  0  0  0  0  0  0  0  0
   -7.9130  217.2280   78.1080 C   0  0  0  0  0  0  0  0  0  0  0  0
   -7.5590  216.3970   79.1860 C   0  0  0  0  0  0  0  0  0  0  0  0
   -6.4800  215.5040   79.0570 C   0  0  0  0  0  0  0  0  0  0  0  0
   -6.0570  214.6680   80.0170 C   0  0  0  0  0  0  0  0  0  0  0  0
   -6.7830  214.0530   80.9440 C   0  0  0  0  0  0  0  0  0  0  0  0
   -5.8880  213.3390   81.6300 N   0  0  0  0  0  0  0  0  0  0  0  0
   -6.1200  212.4390   82.7820 C   0  0  0  0  0  0  0  0  0  0  0  0
   -4.7720  211.9230   83.2620 C   0  0  0  0  0  0  0  0  0  0  0  0
   -4.6560  210.4500   83.2610 N   0  0  0  0  0  0  0  0  0  0  0  0
   -3.8880  209.6810   82.4550 C   0  0  0  0  0  0  0  0  0  0  0  0
   -2.4870  209.8260   82.3300 C   0  0  0  0  0  0  0  0  0  0  0  0
   -1.8370  208.9410   81.4540 C   0  0  0  0  0  0  0  0  0  0  0  0
   -2.5300  207.9920   80.8040 N   0  0  0  0  0  0  0  0  0  0  0  0
   -3.8540  207.8380   80.9220 C   0  0  0  0  0  0  0  0  0  0  0  0
   -4.5030  206.8310   80.2140 C   0  0  0  0  0  0  0  0  0  0  0  0
   -5.8810  206.6800   80.3480 C   0  0  0  0  0  0  0  0  0  0  0  0
   -6.6000  207.5250   81.1910 C   0  0  0  0  0  0  0  0  0  0  0  0
   -5.9410  208.5260   81.8970 C   0  0  0  0  0  0  0  0  0  0  0  0
   -4.5670  208.6810   81.7620 C   0  0  0  0  0  0  0  0  0  0  0  0
   -0.4520  208.9610   81.2210 C   0  0  0  0  0  0  0  0  0  0  0  0
    0.1780  210.2700   81.6470 C   0  0  0  0  0  0  0  0  0  0  0  0
   -0.2690  210.5090   83.0730 C   0  0  0  0  0  0  0  0  0  0  0  0
   -1.7420  210.8190   83.0120 C   0  0  0  0  0  0  0  0  0  0  0  0
   -4.7160  213.5250   81.1240 N   0  0  0  0  0  0  0  0  0  0  0  0
   -4.7830  214.3010   80.1670 N   0  0  0  0  0  0  0  0  0  0  0  0
   -5.7750  215.4470   77.8600 C   0  0  0  0  0  0  0  0  0  0  0  0
   -6.1360  216.2690   76.8140 C   0  0  0  0  0  0  0  0  0  0  0  0
   -7.1990  217.1480   76.9700 N   0  0  0  0  0  0  0  0  0  0  0  0
  -10.5070  219.6260   78.6850 N   0  0  0  0  0  0  0  0  0  0  0  0
  -11.3440  220.3020   79.5010 C   0  0  0  0  0  0  0  0  0  0  0  0
  -11.6480  219.9360   80.8090 C   0  0  0  0  0  0  0  0  0  0  0  0
  -12.5090  220.7240   81.5500 C   0  0  0  0  0  0  0  0  0  0  0  0
  -13.0400  221.8570   80.9540 C   0  0  0  0  0  0  0  0  0  0  0  0
  -12.7210  222.1800   79.7030 C   0  0  0  0  0  0  0  0  0  0  0  0
  -11.8770  221.4220   78.9800 C   0  0  0  0  0  0  0  0  0  0  0  0
  -11.7550  222.0110   77.7060 C   0  0  2  0  0  0  0  0  0  0  0  0
  -10.3910  222.6000   77.4490 C   0  0  0  0  0  0  0  0  0  0  0  0
  -10.4510  223.2780   76.0770 C   0  0  0  0  0  0  0  0  0  0  0  0
  -11.3700  224.5000   76.1390 C   0  0  0  0  0  0  0  0  0  0  0  0
  -12.7640  224.0840   76.5990 C   0  0  0  0  0  0  0  0  0  0  0  0
  -12.6390  223.1560   77.7400 N   0  0  0  0  0  0  0  0  0  0  0  0
  -13.1280  223.2130   78.9640 C   0  0  0  0  0  0  0  0  0  0  0  0
  -13.8960  224.0880   79.3570 O   0  0  0  0  0  0  0  0  0  0  0  0
 46 45  2  0
 45 44  1  0
 45 37  1  0
 44 43  1  0
 44 39  1  0
 43 42  1  0
 42 41  1  0
 41 40  1  0
 39 40  1  1
 39 38  1  0
 38 37  2  0
 38 33  1  0
 37 36  1  0
 36 35  2  0
 35 34  1  0
 34 33  2  0
 33 32  1  0
 32  2  1  0
  2  1  2  0
  2  3  1  0
  3  4  1  0
  4  5  2  0
  4 31  1  0
  5  6  1  0
 31 30  2  0
 30 29  1  0
 29  6  2  0
  6  7  1  0
  7  8  2  0
  7 28  1  0
  8  9  1  0
 28 27  2  0
 27  9  1  0
  9 10  1  0
 10 11  1  0
 11 12  1  0
 12 13  1  0
 13 14  1  0
 13 22  2  0
 14 26  1  0
 14 15  2  0
 26 25  1  0
 25 24  1  0
 24 23  1  0
 23 15  1  0
 15 16  1  0
 16 17  2  0
 17 22  1  0
 17 18  1  0
 22 21  1  0
 21 20  2  0
 20 19  1  0
 19 18  2  0
M  END
$$$$
