
     RDKit          3D

 12 12  0  0  0  0  0  0  0  0999 V2000
  -24.1820   -4.8280   -0.8490 O   0  0  0  0  0  0  0  0  0  0  0  0
  -22.9760   -4.8570   -0.1220 C   0  0  0  0  0  0  0  0  0  0  0  0
  -22.0060   -5.6520   -0.9450 C   0  0  1  0  0  0  0  0  0  0  0  0
  -22.0190   -5.1500   -2.3400 O   0  0  0  0  0  0  0  0  0  0  0  0
  -21.0710   -5.8990   -3.2270 C   0  0  1  0  0  0  0  0  0  0  0  0
  -21.1470   -5.3340   -4.4530 O   0  0  0  0  0  0  0  0  0  0  0  0
  -19.6590   -5.8720   -2.6360 C   0  0  2  0  0  0  0  0  0  0  0  0
  -18.7880   -6.6740   -3.4520 O   0  0  0  0  0  0  0  0  0  0  0  0
  -19.6900   -6.4150   -1.2430 C   0  0  1  0  0  0  0  0  0  0  0  0
  -18.3690   -6.4860   -0.6280 O   0  0  0  0  0  0  0  0  0  0  0  0
  -20.5910   -5.5980   -0.3740 C   0  0  2  0  0  0  0  0  0  0  0  0
  -20.5710   -6.1050    0.9690 O   0  0  0  0  0  0  0  0  0  0  0  0
  9  7  1  0
  7  5  1  0
  7  8  1  6
 11  9  1  0
  9 10  1  1
  3 11  1  0
 11 12  1  1
  3  2  1  1
  3  4  1  0
  1  2  1  0
  5  6  1  6
  5  4  1  0
M  END
$$$$
