
     RDKit          3D

 25 28  0  0  0  0  0  0  0  0999 V2000
  -23.1590   20.9540  -35.2790 C   0  0  0  0  0  0  0  0  0  0  0  0
  -22.3940   20.6790  -34.2410 C   0  0  0  0  0  0  0  0  0  0  0  0
  -22.9860   20.4950  -32.8430 C   0  0  0  0  0  0  0  0  0  0  0  0
  -22.1550   19.6090  -32.1400 O   0  0  0  0  0  0  0  0  0  0  0  0
  -22.2440   19.6490  -30.7460 C   0  0  0  0  0  0  0  0  0  0  0  0
  -23.2230   20.4450  -30.1400 C   0  0  0  0  0  0  0  0  0  0  0  0
  -23.3270   20.4880  -28.7370 C   0  0  0  0  0  0  0  0  0  0  0  0
  -22.4450   19.7430  -27.9540 C   0  0  0  0  0  0  0  0  0  0  0  0
  -21.4660   18.9510  -28.5560 C   0  0  0  0  0  0  0  0  0  0  0  0
  -21.3530   18.8950  -29.9570 C   0  0  0  0  0  0  0  0  0  0  0  0
  -20.2510   17.9990  -30.3090 C   0  0  0  0  0  0  0  0  0  0  0  0
  -19.6770   17.4840  -29.1400 C   0  0  0  0  0  0  0  0  0  0  0  0
  -18.6230   16.6220  -29.5280 C   0  0  0  0  0  0  0  0  0  0  0  0
  -18.5960   16.6420  -30.9440 C   0  0  0  0  0  0  0  0  0  0  0  0
  -19.5750   17.4620  -31.3800 N   0  0  0  0  0  0  0  0  0  0  0  0
  -19.8660   17.7520  -32.7790 C   0  0  1  0  0  0  0  0  0  0  0  0
  -18.6620   18.3850  -33.4820 C   0  0  0  0  0  0  0  0  0  0  0  0
  -20.4250   16.5430  -33.5210 C   0  0  0  0  0  0  0  0  0  0  0  0
  -17.5140   15.7730  -31.7180 C   0  0  0  0  0  0  0  0  0  0  0  0
  -16.8740   14.6800  -30.8330 C   0  0  0  0  0  0  0  0  0  0  0  0
  -16.5260   15.1150  -29.4310 C   0  0  0  0  0  0  0  0  0  0  0  0
  -17.6330   15.8040  -28.7380 C   0  0  0  0  0  0  0  0  0  0  0  0
  -17.7440   15.7540  -27.5590 O   0  0  0  0  0  0  0  0  0  0  0  0
  -20.4080   18.0510  -27.9690 C   0  0  0  0  0  0  0  0  0  0  0  0
  -20.2120   17.8330  -26.8160 O   0  0  0  0  0  0  0  0  0  0  0  0
 10 11  1  0
 11 12  2  0
 11 15  1  0
 14 13  2  0
 12 13  1  0
 13 22  1  0
 14 19  1  0
 15 14  1  0
 16 17  1  6
 16 18  1  0
 15 16  1  0
  2  1  2  0
  3  2  1  0
  4  3  1  0
  5  6  2  0
  5 10  1  0
  5  4  1  0
  6  7  1  0
  7  8  2  0
  8  9  1  0
  9 10  2  0
  9 24  1  0
 12 24  1  0
 19 20  1  0
 20 21  1  0
 21 22  1  0
 22 23  2  0
 24 25  2  0
M  END
$$$$
