
     RDKit          3D

 46 51  0  0  0  0  0  0  0  0999 V2000
    4.1250  -14.6040  -20.5200 C   0  0  0  0  0  0  0  0  0  0  0  0
    4.9130  -15.6760  -21.2700 C   0  0  0  0  0  0  0  0  0  0  0  0
    5.7280  -16.6380  -20.4000 C   0  0  0  0  0  0  0  0  0  0  0  0
    5.7260  -16.5350  -19.1740 O   0  0  0  0  0  0  0  0  0  0  0  0
    6.4060  -17.5740  -21.0880 N   0  0  0  0  0  0  0  0  0  0  0  0
    7.1460  -18.4470  -20.4070 C   0  0  0  0  0  0  0  0  0  0  0  0
    8.2630  -18.0650  -19.6750 C   0  0  0  0  0  0  0  0  0  0  0  0
    8.9940  -19.0240  -18.9740 C   0  0  0  0  0  0  0  0  0  0  0  0
   10.0760  -18.6970  -18.2590 N   0  0  0  0  0  0  0  0  0  0  0  0
   10.0090  -17.7230  -17.3310 C   0  0  0  0  0  0  0  0  0  0  0  0
    8.9750  -17.1010  -17.0870 O   0  0  0  0  0  0  0  0  0  0  0  0
   11.1350  -17.4650  -16.6550 N   0  0  0  0  0  0  0  0  0  0  0  0
   11.2090  -16.4110  -15.6350 C   0  0  1  0  0  0  0  0  0  0  0  0
   11.9010  -16.9260  -14.3790 C   0  0  0  0  0  0  0  0  0  0  0  0
   12.0530  -15.7770  -13.3920 C   0  0  0  0  0  0  0  0  0  0  0  0
   12.8450  -14.6740  -13.9780 N   0  0  2  0  0  0  0  0  0  0  0  0
   12.9670  -13.5600  -13.0230 C   0  0  0  0  0  0  0  0  0  0  0  0
   13.8570  -13.8460  -11.9920 C   0  0  0  0  0  0  0  0  0  0  0  0
   13.5010  -13.5370  -10.6860 C   0  0  0  0  0  0  0  0  0  0  0  0
   14.3730  -13.8160   -9.6420 C   0  0  0  0  0  0  0  0  0  0  0  0
   15.6210  -14.3830   -9.8940 C   0  0  0  0  0  0  0  0  0  0  0  0
   16.4970  -14.6790   -8.8470 C   0  0  0  0  0  0  0  0  0  0  0  0
   16.9290  -15.9510   -8.7810 N   0  0  0  0  0  0  0  0  0  0  0  0
   17.7620  -16.3780   -7.8200 C   0  0  0  0  0  0  0  0  0  0  0  0
   18.2090  -15.5010   -6.8450 C   0  0  0  0  0  0  0  0  0  0  0  0
   17.7840  -14.1810   -6.8740 C   0  0  0  0  0  0  0  0  0  0  0  0
   16.9200  -13.7530   -7.8760 C   0  0  0  0  0  0  0  0  0  0  0  0
   16.5420  -12.4080   -7.8450 C   0  0  0  0  0  0  0  0  0  0  0  0
   16.7040  -11.5810   -8.9560 C   0  0  0  0  0  0  0  0  0  0  0  0
   16.3280  -10.2450   -8.8960 C   0  0  0  0  0  0  0  0  0  0  0  0
   15.8050   -9.7220   -7.7180 C   0  0  0  0  0  0  0  0  0  0  0  0
   15.6570  -10.5420   -6.6050 C   0  0  0  0  0  0  0  0  0  0  0  0
   16.0320  -11.8790   -6.6680 C   0  0  0  0  0  0  0  0  0  0  0  0
   19.0730  -15.9580   -5.8550 C   0  0  0  0  0  0  0  0  0  0  0  0
   19.4850  -15.2010   -4.9780 O   0  0  0  0  0  0  0  0  0  0  0  0
   19.4800  -17.2990   -5.8570 N   0  0  0  0  0  0  0  0  0  0  0  0
   19.0510  -18.1320   -6.7890 C   0  0  0  0  0  0  0  0  0  0  0  0
   18.1860  -17.7010   -7.7900 C   0  0  0  0  0  0  0  0  0  0  0  0
   15.9710  -14.7020  -11.2020 C   0  0  0  0  0  0  0  0  0  0  0  0
   15.0960  -14.4260  -12.2500 C   0  0  0  0  0  0  0  0  0  0  0  0
   12.1560  -14.1670  -15.1710 C   0  0  0  0  0  0  0  0  0  0  0  0
   12.0130  -15.2620  -16.2180 C   0  0  0  0  0  0  0  0  0  0  0  0
    8.6140  -20.3590  -19.0460 C   0  0  0  0  0  0  0  0  0  0  0  0
    7.5000  -20.7370  -19.7890 C   0  0  0  0  0  0  0  0  0  0  0  0
    6.7630  -19.7800  -20.4760 C   0  0  0  0  0  0  0  0  0  0  0  0
    5.3820  -20.2510  -21.3960 Cl  0  0  0  0  0  0  0  0  0  0  0  0
 29 30  2  0
 29 28  1  0
 30 31  1  0
 31 32  2  0
 32 33  1  0
 33 28  2  0
 28 27  1  0
 27 26  2  0
 27 22  1  0
 26 25  1  0
 25 34  1  0
 25 24  2  0
 34 35  2  0
 34 36  1  0
 36 37  2  0
 37 38  1  0
 38 24  1  0
 24 23  1  0
 23 22  2  0
 22 21  1  0
 21 20  2  0
 21 39  1  0
 20 19  1  0
 19 18  2  0
 39 40  2  0
 40 18  1  0
 18 17  1  0
 16 17  1  1
 16 15  1  0
 16 41  1  0
 15 14  1  0
 14 13  1  0
 41 42  1  0
 42 13  1  0
 13 12  1  6
 12 10  1  0
 10 11  2  0
 10  9  1  0
  9  8  1  0
  8  7  2  0
  8 43  1  0
  7  6  1  0
 43 44  2  0
 44 45  1  0
 45 46  1  0
 45  6  2  0
  6  5  1  0
  5  3  1  0
  3  4  2  0
  3  2  1  0
  2  1  1  0
M  CHG  1  16   1
M  END
$$$$
