
     RDKit          3D

 41 46  0  0  0  0  0  0  0  0999 V2000
    0.7660   14.1760   -5.0910 C   0  0  0  0  0  0  0  0  0  0  0  0
    1.7550   13.0150   -4.8800 C   0  0  0  0  0  0  0  0  0  0  0  0
    1.2830   11.6440   -5.4090 C   0  0  0  0  0  0  0  0  0  0  0  0
    2.0940   10.7430   -5.6380 O   0  0  0  0  0  0  0  0  0  0  0  0
   -0.0500   11.5560   -5.6160 N   0  0  0  0  0  0  0  0  0  0  0  0
   -0.5820   10.4410   -6.1360 C   0  0  0  0  0  0  0  0  0  0  0  0
   -1.2840    9.5300   -5.3540 C   0  0  0  0  0  0  0  0  0  0  0  0
   -1.8430    8.3840   -5.9200 C   0  0  0  0  0  0  0  0  0  0  0  0
   -1.7130    8.1460   -7.2840 C   0  0  0  0  0  0  0  0  0  0  0  0
   -2.2510    7.0440   -7.8350 N   0  0  0  0  0  0  0  0  0  0  0  0
   -3.2960    6.2960   -7.0980 C   0  0  0  0  0  0  0  0  0  0  0  0
   -4.3090    5.7020   -8.0470 C   0  0  0  0  0  0  0  0  0  0  0  0
   -3.6550    4.9690   -9.1390 N   0  0  1  0  0  0  0  0  0  0  0  0
   -4.7440    4.4480   -9.9530 C   0  0  0  0  0  0  0  0  0  0  0  0
   -4.3300    3.6210  -10.9860 C   0  0  0  0  0  0  0  0  0  0  0  0
   -3.6350    2.4380  -10.7470 C   0  0  0  0  0  0  0  0  0  0  0  0
   -3.2510    1.6260  -11.8160 C   0  0  0  0  0  0  0  0  0  0  0  0
   -3.5710    1.9870  -13.1230 C   0  0  0  0  0  0  0  0  0  0  0  0
   -3.2090    1.1540  -14.1890 C   0  0  0  0  0  0  0  0  0  0  0  0
   -1.9410    0.7260  -14.2390 N   0  0  0  0  0  0  0  0  0  0  0  0
   -1.5140   -0.0870  -15.2190 C   0  0  0  0  0  0  0  0  0  0  0  0
   -2.3830   -0.5220  -16.2150 C   0  0  0  0  0  0  0  0  0  0  0  0
   -3.7120   -0.1190  -16.1990 C   0  0  0  0  0  0  0  0  0  0  0  0
   -4.1380    0.7200  -15.1710 C   0  0  0  0  0  0  0  0  0  0  0  0
   -5.4830    1.1120  -15.1520 C   0  0  0  0  0  0  0  0  0  0  0  0
   -6.2700    0.8410  -14.0330 C   0  0  0  0  0  0  0  0  0  0  0  0
   -7.5930    1.2460  -14.0000 C   0  0  0  0  0  0  0  0  0  0  0  0
   -8.1450    1.9210  -15.0870 C   0  0  0  0  0  0  0  0  0  0  0  0
   -7.3710    2.1890  -16.2050 C   0  0  0  0  0  0  0  0  0  0  0  0
   -6.0400    1.7760  -16.2390 C   0  0  0  0  0  0  0  0  0  0  0  0
   -1.9090   -1.3570  -17.2210 C   0  0  0  0  0  0  0  0  0  0  0  0
   -2.6510   -1.7630  -18.1150 O   0  0  0  0  0  0  0  0  0  0  0  0
   -0.5650   -1.7450  -17.2140 N   0  0  0  0  0  0  0  0  0  0  0  0
    0.2570   -1.3270  -16.2660 C   0  0  0  0  0  0  0  0  0  0  0  0
   -0.1840   -0.4930  -15.2500 C   0  0  0  0  0  0  0  0  0  0  0  0
   -4.2640    3.1800  -13.3420 C   0  0  0  0  0  0  0  0  0  0  0  0
   -4.6550    3.9820  -12.2830 C   0  0  0  0  0  0  0  0  0  0  0  0
   -2.9170    5.9350   -9.9610 C   0  0  0  0  0  0  0  0  0  0  0  0
   -1.7890    6.5680   -9.1650 C   0  0  0  0  0  0  0  0  0  0  0  0
   -1.0240    9.0580   -8.0700 C   0  0  0  0  0  0  0  0  0  0  0  0
   -0.4680   10.2000   -7.5030 C   0  0  0  0  0  0  0  0  0  0  0  0
 26 27  2  0
 26 25  1  0
 27 28  1  0
 28 29  2  0
 29 30  1  0
 30 25  2  0
 25 24  1  0
 24 23  2  0
 24 19  1  0
 23 22  1  0
 22 31  1  0
 22 21  2  0
 31 32  2  0
 31 33  1  0
 33 34  2  0
 34 35  1  0
 35 21  1  0
 21 20  1  0
 20 19  2  0
 19 18  1  0
 18 17  2  0
 18 36  1  0
 17 16  1  0
 16 15  2  0
 36 37  2  0
 37 15  1  0
 15 14  1  0
 13 14  1  6
 13 12  1  0
 13 38  1  0
 12 11  1  0
 11 10  1  0
 38 39  1  0
 39 10  1  0
 10  9  1  0
  9  8  2  0
  9 40  1  0
  8  7  1  0
  7  6  2  0
 40 41  2  0
 41  6  1  0
  6  5  1  0
  5  3  1  0
  3  4  2  0
  3  2  1  0
  2  1  1  0
M  CHG  1  13   1
M  END
$$$$
