
     RDKit          3D

 44 49  0  0  0  0  0  0  0  0999 V2000
    2.3310   13.9480   -6.2420 C   0  0  0  0  0  0  0  0  0  0  0  0
    1.6230   13.2240   -5.0980 C   0  0  0  0  0  0  0  0  0  0  0  0
    1.8040   11.7120   -5.1100 C   0  0  0  0  0  0  0  0  0  0  0  0
    2.4820   11.1820   -5.9830 O   0  0  0  0  0  0  0  0  0  0  0  0
    1.2000   11.0290   -4.1290 N   0  0  0  0  0  0  0  0  0  0  0  0
    1.3650    9.7100   -4.1670 C   0  0  0  0  0  0  0  0  0  0  0  0
    2.3370    9.0890   -3.3940 C   0  0  0  0  0  0  0  0  0  0  0  0
    2.4940    7.7100   -3.4590 C   0  0  0  0  0  0  0  0  0  0  0  0
    1.6880    6.9500   -4.2990 C   0  0  0  0  0  0  0  0  0  0  0  0
    0.7180    7.5750   -5.0730 C   0  0  0  0  0  0  0  0  0  0  0  0
   -0.1000    6.8380   -5.9200 C   0  0  0  0  0  0  0  0  0  0  0  0
    0.0100    5.6150   -6.0050 O   0  0  0  0  0  0  0  0  0  0  0  0
   -0.9780    7.5890   -6.6030 N   0  0  0  0  0  0  0  0  0  0  0  0
   -1.9640    7.0780   -7.5700 C   0  0  1  0  0  0  0  0  0  0  0  0
   -1.2910    6.3860   -8.7560 C   0  0  0  0  0  0  0  0  0  0  0  0
   -2.3800    5.9420   -9.7290 C   0  0  0  0  0  0  0  0  0  0  0  0
   -3.3430    5.0430   -9.0750 N   0  0  2  0  0  0  0  0  0  0  0  0
   -4.4420    4.7380   -9.9960 C   0  0  0  0  0  0  0  0  0  0  0  0
   -4.0890    3.8610  -11.0150 C   0  0  0  0  0  0  0  0  0  0  0  0
   -4.3460    4.2290  -12.3270 C   0  0  0  0  0  0  0  0  0  0  0  0
   -4.0040    3.3710  -13.3600 C   0  0  0  0  0  0  0  0  0  0  0  0
   -3.4310    2.1280  -13.0960 C   0  0  0  0  0  0  0  0  0  0  0  0
   -3.0970    1.2730  -14.1530 C   0  0  0  0  0  0  0  0  0  0  0  0
   -1.8230    0.8550  -14.2310 N   0  0  0  0  0  0  0  0  0  0  0  0
   -1.4000    0.0460  -15.2130 C   0  0  0  0  0  0  0  0  0  0  0  0
   -2.2780   -0.3940  -16.1920 C   0  0  0  0  0  0  0  0  0  0  0  0
   -3.6030    0.0130  -16.1500 C   0  0  0  0  0  0  0  0  0  0  0  0
   -4.0230    0.8500  -15.1240 C   0  0  0  0  0  0  0  0  0  0  0  0
   -5.3670    1.2300  -15.1160 C   0  0  0  0  0  0  0  0  0  0  0  0
   -5.9240    1.7950  -16.2540 C   0  0  0  0  0  0  0  0  0  0  0  0
   -7.2600    2.1790  -16.2550 C   0  0  0  0  0  0  0  0  0  0  0  0
   -8.0430    1.9930  -15.1230 C   0  0  0  0  0  0  0  0  0  0  0  0
   -7.4940    1.4210  -13.9820 C   0  0  0  0  0  0  0  0  0  0  0  0
   -6.1630    1.0310  -13.9860 C   0  0  0  0  0  0  0  0  0  0  0  0
   -1.8160   -1.2360  -17.2010 C   0  0  0  0  0  0  0  0  0  0  0  0
   -2.5690   -1.6450  -18.0860 O   0  0  0  0  0  0  0  0  0  0  0  0
   -0.4690   -1.6220  -17.2080 N   0  0  0  0  0  0  0  0  0  0  0  0
    0.3640   -1.2010  -16.2730 C   0  0  0  0  0  0  0  0  0  0  0  0
   -0.0730   -0.3620  -15.2570 C   0  0  0  0  0  0  0  0  0  0  0  0
   -3.1730    1.7650  -11.7770 C   0  0  0  0  0  0  0  0  0  0  0  0
   -3.5090    2.6270  -10.7380 C   0  0  0  0  0  0  0  0  0  0  0  0
   -3.9570    5.7050   -7.9170 C   0  0  0  0  0  0  0  0  0  0  0  0
   -2.9190    6.1120   -6.9000 C   0  0  0  0  0  0  0  0  0  0  0  0
    0.5610    8.9540   -5.0080 C   0  0  0  0  0  0  0  0  0  0  0  0
 30 31  2  0
 30 29  1  0
 31 32  1  0
 32 33  2  0
 33 34  1  0
 34 29  2  0
 29 28  1  0
 28 27  2  0
 28 23  1  0
 27 26  1  0
 26 35  1  0
 26 25  2  0
 35 36  2  0
 35 37  1  0
 37 38  2  0
 38 39  1  0
 39 25  1  0
 25 24  1  0
 24 23  2  0
 23 22  1  0
 22 21  2  0
 22 40  1  0
 21 20  1  0
 20 19  2  0
 40 41  2  0
 41 19  1  0
 19 18  1  0
 17 18  1  6
 17 16  1  0
 17 42  1  0
 16 15  1  0
 15 14  1  0
 42 43  1  0
 43 14  1  0
 14 13  1  1
 13 11  1  0
 11 12  2  0
 11 10  1  0
 10 44  2  0
 10  9  1  0
 44  6  1  0
  9  8  2  0
  8  7  1  0
  7  6  2  0
  6  5  1  0
  5  3  1  0
  3  4  2  0
  3  2  1  0
  2  1  1  0
M  CHG  1  17   1
M  END
$$$$
