
     RDKit          3D

 21 23  0  0  0  0  0  0  0  0999 V2000
   64.6490   31.7490   28.1880 O   0  0  0  0  0  0  0  0  0  0  0  0
   64.5570   32.5020   27.0680 C   0  0  0  0  0  0  0  0  0  0  0  0
   65.7250   32.9650   26.4530 C   0  0  0  0  0  0  0  0  0  0  0  0
   65.6450   33.7490   25.3130 C   0  0  0  0  0  0  0  0  0  0  0  0
   64.3790   34.0650   24.7770 C   0  0  0  0  0  0  0  0  0  0  0  0
   64.2610   34.9760   23.6210 C   0  0  0  0  0  0  0  0  0  0  0  0
   63.5310   34.7800   22.5570 N   0  0  0  0  0  0  0  0  0  0  0  0
   63.6780   35.8990   21.7290 N   0  0  0  0  0  0  0  0  0  0  0  0
   64.4860   36.7690   22.3550 C   0  0  0  0  0  0  0  0  0  0  0  0
   64.9770   38.2910   21.7600 S   0  0  0  0  0  0  0  0  0  0  0  0
   64.8540   36.2270   23.5310 N   0  0  0  0  0  0  0  0  0  0  0  0
   65.7010   36.8360   24.4810 C   0  0  0  0  0  0  0  0  0  0  0  0
   65.1940   37.3420   25.6800 C   0  0  0  0  0  0  0  0  0  0  0  0
   66.0500   37.9280   26.6120 C   0  0  0  0  0  0  0  0  0  0  0  0
   67.4160   38.0080   26.3520 C   0  0  0  0  0  0  0  0  0  0  0  0
   67.9280   37.5050   25.1560 C   0  0  0  0  0  0  0  0  0  0  0  0
   67.0730   36.9160   24.2230 C   0  0  0  0  0  0  0  0  0  0  0  0
   67.5510   36.4190   23.0590 F   0  0  0  0  0  0  0  0  0  0  0  0
   63.2070   33.6090   25.4090 C   0  0  0  0  0  0  0  0  0  0  0  0
   61.9880   33.9160   24.8920 O   0  0  0  0  0  0  0  0  0  0  0  0
   63.2990   32.8280   26.5580 C   0  0  0  0  0  0  0  0  0  0  0  0
 21  2  2  0
  2  3  1  0
  2  1  1  0
 19 21  1  0
  5 19  2  0
 19 20  1  0
  6  5  1  0
  6  7  2  0
 11  6  1  0
  9  8  1  0
 11  9  1  0
  9 10  2  0
 12 17  2  0
 12 11  1  0
 12 13  1  0
 17 16  1  0
 17 18  1  0
 16 15  2  0
 15 14  1  0
 14 13  2  0
  5  4  1  0
  4  3  2  0
  7  8  1  0
M  END
$$$$
