
     RDKit          3D

 81 81  0  0  0  0  0  0  0  0999 V2000
   62.7644  -38.8379   -3.1359 H   0  0  0  0  0  0  0  0  0  0  0  0
   62.8120  -39.8330   -2.9170 N   0  0  0  0  0  0  0  0  0  0  0  0
   61.9840  -40.6930   -3.5250 C   0  0  0  0  0  0  0  0  0  0  0  0
   62.0450  -42.0000   -3.2340 N   0  0  0  0  0  0  0  0  0  0  0  0
   61.0930  -40.2460   -4.4210 N   0  0  0  0  0  0  0  0  0  0  0  0
   60.9530  -38.8330   -4.8040 C   0  0  0  0  0  0  0  0  0  0  0  0
   60.5630  -38.7300   -6.2820 C   0  0  0  0  0  0  0  0  0  0  0  0
   59.1440  -39.2730   -6.4760 C   0  0  0  0  0  0  0  0  0  0  0  0
   58.4380  -38.5580   -7.6390 C   0  0  2  0  0  0  0  0  0  0  0  0
   59.3740  -38.2670   -8.7400 N   0  0  0  0  0  0  0  0  0  0  0  0
   57.7850  -37.2490   -7.1470 C   0  0  0  0  0  0  0  0  0  0  0  0
   58.3240  -36.5430   -6.2930 O   0  0  0  0  0  0  0  0  0  0  0  0
   56.6090  -36.9490   -7.7250 N   0  0  0  0  0  0  0  0  0  0  0  0
   55.8400  -35.7440   -7.3810 C   0  0  1  0  0  0  0  0  0  0  0  0
   54.6520  -35.5970   -8.3530 C   0  0  0  0  0  0  0  0  0  0  0  0
   55.0900  -35.6690   -9.8180 C   0  0  0  0  0  0  0  0  0  0  0  0
   53.8710  -35.4130  -10.7310 C   0  0  0  0  0  0  0  0  0  0  0  0
   53.0440  -34.3580  -10.1130 N   0  0  0  0  0  0  0  0  0  0  0  0
   52.4840  -33.3260  -10.7680 C   0  0  0  0  0  0  0  0  0  0  0  0
   52.6380  -33.2020  -12.1040 N   0  0  0  0  0  0  0  0  0  0  0  0
   51.7750  -32.4110  -10.0830 N   0  0  0  0  0  0  0  0  0  0  0  0
   51.6649  -32.5026   -9.0731 H   0  0  0  0  0  0  0  0  0  0  0  0
   55.2830  -35.8820   -5.9510 C   0  0  0  0  0  0  0  0  0  0  0  0
   54.9990  -36.9820   -5.4810 O   0  0  0  0  0  0  0  0  0  0  0  0
   55.0990  -34.7390   -5.2780 N   0  0  0  0  0  0  0  0  0  0  0  0
   54.5250  -34.7390   -3.9130 C   0  0  1  0  0  0  0  0  0  0  0  0
   54.6870  -33.3290   -3.3150 C   0  0  0  0  0  0  0  0  0  0  0  0
   54.2200  -33.2380   -1.8280 C   0  0  0  0  0  0  0  0  0  0  0  0
   54.6370  -31.8690   -1.2670 C   0  0  0  0  0  0  0  0  0  0  0  0
   54.0840  -31.5930    0.0780 N   0  0  0  0  0  0  0  0  0  0  0  0
   52.9110  -30.9580    0.3000 C   0  0  0  0  0  0  0  0  0  0  0  0
   52.4880  -30.7270    1.5740 N   0  0  0  0  0  0  0  0  0  0  0  0
   52.1600  -30.5680   -0.7530 N   0  0  0  0  0  0  0  0  0  0  0  0
   52.4795  -30.7533   -1.7038 H   0  0  0  0  0  0  0  0  0  0  0  0
   53.0250  -35.1380   -4.0020 C   0  0  0  0  0  0  0  0  0  0  0  0
   52.5130  -35.8730   -3.1490 O   0  0  0  0  0  0  0  0  0  0  0  0
   52.3370  -34.6210   -5.0490 N   0  0  0  0  0  0  0  0  0  0  0  0
   50.8870  -34.8600   -5.2640 C   0  0  1  0  0  0  0  0  0  0  0  0
   50.0790  -33.5890   -4.9070 C   0  0  0  0  0  0  0  0  0  0  0  0
   50.3890  -33.1130   -3.4690 C   0  0  0  0  0  0  0  0  0  0  0  0
   49.7260  -34.0480   -2.4390 C   0  0  0  0  0  0  0  0  0  0  0  0
   49.9280  -33.5670   -1.0530 N   0  0  0  0  0  0  0  0  0  0  0  0
   50.7650  -34.1330   -0.1570 C   0  0  0  0  0  0  0  0  0  0  0  0
   50.8470  -33.6670    1.1060 N   0  0  0  0  0  0  0  0  0  0  0  0
   51.5170  -35.1800   -0.5110 N   0  0  0  0  0  0  0  0  0  0  0  0
   51.4590  -35.5523   -1.4588 H   0  0  0  0  0  0  0  0  0  0  0  0
   50.6180  -35.2950   -6.7200 C   0  0  0  0  0  0  0  0  0  0  0  0
   51.2100  -34.7690   -7.6640 O   0  0  0  0  0  0  0  0  0  0  0  0
   49.6980  -36.2630   -6.8870 N   0  0  0  0  0  0  0  0  0  0  0  0
   49.3870  -36.8050   -8.2230 C   0  0  1  0  0  0  0  0  0  0  0  0
   49.7230  -38.3050   -8.1810 C   0  0  0  0  0  0  0  0  0  0  0  0
   51.2270  -38.5520   -8.0120 C   0  0  0  0  0  0  0  0  0  0  0  0
   51.7730  -39.1970   -9.3000 C   0  0  0  0  0  0  0  0  0  0  0  0
   53.2470  -39.6120   -9.1280 C   0  0  0  0  0  0  0  0  0  0  0  0
   53.9630  -39.6030  -10.4220 N   0  0  0  0  0  0  0  0  0  0  0  0
   47.8970  -36.6910   -8.5970 C   0  0  0  0  0  0  0  0  0  0  0  0
   47.0280  -36.7150   -7.7310 O   0  0  0  0  0  0  0  0  0  0  0  0
   47.6260  -36.6360   -9.9180 N   0  0  0  0  0  0  0  0  0  0  0  0
   46.2540  -36.6470  -10.4500 C   0  0  1  0  0  0  0  0  0  0  0  0
   46.2900  -36.5510  -11.9880 C   0  0  0  0  0  0  0  0  0  0  0  0
   46.7180  -35.1550  -12.4980 C   0  0  0  0  0  0  0  0  0  0  0  0
   47.0270  -35.2670  -14.0110 C   0  0  0  0  0  0  0  0  0  0  0  0
   47.3990  -33.9660  -14.6090 N   0  0  0  0  0  0  0  0  0  0  0  0
   48.6320  -33.4370  -14.5380 C   0  0  0  0  0  0  0  0  0  0  0  0
   48.8940  -32.2530  -15.1250 N   0  0  0  0  0  0  0  0  0  0  0  0
   49.5970  -34.0800  -13.8530 N   0  0  0  0  0  0  0  0  0  0  0  0
   49.3905  -34.9653  -13.3904 H   0  0  0  0  0  0  0  0  0  0  0  0
   45.6960  -38.0370  -10.0590 C   0  0  0  0  0  0  0  0  0  0  0  0
   46.4030  -39.0360  -10.2130 O   0  0  0  0  0  0  0  0  0  0  0  0
   44.4640  -38.0810   -9.5020 N   0  0  0  0  0  0  0  0  0  0  0  0
   43.8520  -39.3460   -9.0090 C   0  0  0  0  0  0  0  0  0  0  0  0
   43.9640  -39.4160   -7.5740 C   0  0  0  0  0  0  0  0  0  0  0  0
   45.1830  -39.7150   -6.9670 C   0  0  0  0  0  0  0  0  0  0  0  0
   45.3100  -39.7730   -5.5610 C   0  0  0  0  0  0  0  0  0  0  0  0
   44.2210  -39.5380   -4.7200 C   0  0  0  0  0  0  0  0  0  0  0  0
   44.3660  -39.6030   -3.3090 C   0  0  0  0  0  0  0  0  0  0  0  0
   45.5620  -39.8940   -2.7780 N   0  0  0  0  0  0  0  0  0  0  0  0
   43.3140  -39.3370   -2.5280 N   0  0  0  0  0  0  0  0  0  0  0  0
   42.4174  -39.0900   -2.9469 H   0  0  0  0  0  0  0  0  0  0  0  0
   42.9950  -39.2340   -5.3280 C   0  0  0  0  0  0  0  0  0  0  0  0
   42.8700  -39.1780   -6.7310 C   0  0  0  0  0  0  0  0  0  0  0  0
  9 10  1  6
 11  9  1  0
  9  8  1  0
 11 12  2  0
 13 11  1  0
  8  7  1  0
  7  6  1  0
  6  5  1  0
  5  3  1  0
  3  2  2  0
  3  4  1  0
 14 13  1  0
 23 14  1  0
 14 15  1  6
 23 24  2  0
 25 23  1  0
 15 16  1  0
 16 17  1  0
 17 18  1  0
 18 19  1  0
 19 20  1  0
 19 21  2  0
 26 25  1  0
 35 26  1  0
 26 27  1  6
 35 36  2  0
 37 35  1  0
 27 28  1  0
 28 29  1  0
 29 30  1  0
 30 31  1  0
 31 33  2  0
 31 32  1  0
 38 37  1  0
 47 38  1  0
 38 39  1  6
 47 48  2  0
 49 47  1  0
 39 40  1  0
 40 41  1  0
 41 42  1  0
 42 43  1  0
 43 45  2  0
 43 44  1  0
 56 57  2  0
 50 56  1  0
 56 58  1  0
 50 49  1  0
 50 51  1  1
 52 51  1  0
 53 54  1  0
 53 52  1  0
 54 55  1  0
 58 59  1  0
 59 68  1  0
 59 60  1  6
 68 69  2  0
 68 70  1  0
 60 61  1  0
 61 62  1  0
 62 63  1  0
 63 64  1  0
 64 66  2  0
 64 65  1  0
 70 71  1  0
 71 72  1  0
 72 73  2  0
 72 81  1  0
 73 74  1  0
 74 75  2  0
 75 76  1  0
 75 80  1  0
 76 77  1  0
 76 78  2  0
 80 81  2  0
  2  1  1  0
 21 22  1  0
 33 34  1  0
 45 46  1  0
 66 67  1  0
 78 79  1  0
M  CHG  2  10   1  55   1
M  END
$$$$
