
     RDKit          3D

 81 81  0  0  0  0  0  0  0  0999 V2000
   53.6100  -33.8251    2.6560 H   0  0  0  0  0  0  0  0  0  0  0  0
   54.7807  -33.6982    2.5296 N   0  0  0  0  0  0  0  0  0  0  0  0
   55.2683  -34.9154    2.4308 C   0  0  0  0  0  0  0  0  0  0  0  0
   55.2951  -35.7267    3.5287 N   0  0  0  0  0  0  0  0  0  0  0  0
   55.5632  -35.4658    1.2650 N   0  0  0  0  0  0  0  0  0  0  0  0
   55.4991  -36.8845    0.9408 C   0  0  0  0  0  0  0  0  0  0  0  0
   55.0572  -37.1344   -0.4989 C   0  0  0  0  0  0  0  0  0  0  0  0
   54.5874  -35.8149   -1.1253 C   0  0  0  0  0  0  0  0  0  0  0  0
   55.7086  -34.7604   -1.1068 C   0  0  1  0  0  0  0  0  0  0  0  0
   56.6383  -35.0068    0.0539 N   0  0  0  0  0  0  0  0  0  0  0  0
   56.5612  -34.8394   -2.4053 C   0  0  0  0  0  0  0  0  0  0  0  0
   57.2857  -35.7863   -2.6294 O   0  0  0  0  0  0  0  0  0  0  0  0
   56.5228  -33.6876   -3.1249 N   0  0  0  0  0  0  0  0  0  0  0  0
   55.3131  -33.0574   -3.6297 C   0  0  2  0  0  0  0  0  0  0  0  0
   54.0699  -33.7448   -2.9852 C   0  0  0  0  0  0  0  0  0  0  0  0
   54.4093  -34.7623   -1.8877 C   0  0  0  0  0  0  0  0  0  0  0  0
   54.0991  -34.1525   -0.4951 C   0  0  0  0  0  0  0  0  0  0  0  0
   55.1630  -33.1813   -0.1331 N   0  0  0  0  0  0  0  0  0  0  0  0
   55.1470  -32.4057    0.9215 C   0  0  0  0  0  0  0  0  0  0  0  0
   55.9647  -32.6352    2.0236 N   0  0  0  0  0  0  0  0  0  0  0  0
   54.2514  -31.3553    0.9517 N   0  0  0  0  0  0  0  0  0  0  0  0
   53.3288  -31.6919    0.2344 H   0  0  0  0  0  0  0  0  0  0  0  0
   55.2058  -33.2505   -5.1371 C   0  0  0  0  0  0  0  0  0  0  0  0
   55.6164  -34.2589   -5.7061 O   0  0  0  0  0  0  0  0  0  0  0  0
   54.4099  -32.3640   -5.7949 N   0  0  0  0  0  0  0  0  0  0  0  0
   52.9713  -32.7055   -5.9652 C   0  0  2  0  0  0  0  0  0  0  0  0
   52.2796  -32.6565   -4.6382 C   0  0  0  0  0  0  0  0  0  0  0  0
   52.2397  -34.0107   -3.8811 C   0  0  0  0  0  0  0  0  0  0  0  0
   52.8786  -33.9386   -2.5253 C   0  0  0  0  0  0  0  0  0  0  0  0
   51.9332  -33.9104   -1.4061 N   0  0  0  0  0  0  0  0  0  0  0  0
   52.1949  -33.4499   -0.1721 C   0  0  0  0  0  0  0  0  0  0  0  0
   53.3182  -33.9282    0.4856 N   0  0  0  0  0  0  0  0  0  0  0  0
   51.4472  -32.4821    0.4201 N   0  0  0  0  0  0  0  0  0  0  0  0
   50.2849  -32.7971    0.2292 H   0  0  0  0  0  0  0  0  0  0  0  0
   52.8768  -34.0945   -6.6019 C   0  0  0  0  0  0  0  0  0  0  0  0
   53.0951  -35.1217   -5.9178 O   0  0  0  0  0  0  0  0  0  0  0  0
   52.2647  -34.1661   -7.8050 N   0  0  0  0  0  0  0  0  0  0  0  0
   50.8044  -34.0276   -7.9922 C   0  0  2  0  0  0  0  0  0  0  0  0
   50.2400  -33.0492   -6.9518 C   0  0  0  0  0  0  0  0  0  0  0  0
   49.8994  -33.8222   -5.6547 C   0  0  0  0  0  0  0  0  0  0  0  0
   51.2256  -34.2437   -4.8940 C   0  0  0  0  0  0  0  0  0  0  0  0
   50.8604  -34.9795   -3.6536 N   0  0  0  0  0  0  0  0  0  0  0  0
   50.8673  -34.4654   -2.4188 C   0  0  0  0  0  0  0  0  0  0  0  0
   51.4026  -35.1348   -1.3813 N   0  0  0  0  0  0  0  0  0  0  0  0
   50.1583  -33.3731   -2.2102 N   0  0  0  0  0  0  0  0  0  0  0  0
   49.0254  -33.6909   -2.3046 H   0  0  0  0  0  0  0  0  0  0  0  0
   50.1040  -35.4029   -7.9073 C   0  0  0  0  0  0  0  0  0  0  0  0
   50.7213  -36.4210   -7.7040 O   0  0  0  0  0  0  0  0  0  0  0  0
   48.7722  -35.3872   -8.1152 N   0  0  0  0  0  0  0  0  0  0  0  0
   48.2092  -35.4898   -9.4822 C   0  0  2  0  0  0  0  0  0  0  0  0
   47.6671  -34.0753   -9.7985 C   0  0  0  0  0  0  0  0  0  0  0  0
   47.7109  -33.8263  -11.2845 C   0  0  0  0  0  0  0  0  0  0  0  0
   47.7106  -35.1455  -12.0609 C   0  0  0  0  0  0  0  0  0  0  0  0
   47.7161  -34.9365  -13.5939 C   0  0  0  0  0  0  0  0  0  0  0  0
   47.6855  -36.2185  -14.3180 N   0  0  0  0  0  0  0  0  0  0  0  0
   47.0164  -36.4367   -9.6012 C   0  0  0  0  0  0  0  0  0  0  0  0
   47.1863  -37.6870   -9.6827 O   0  0  0  0  0  0  0  0  0  0  0  0
   45.8323  -35.9228   -9.9625 N   0  0  0  0  0  0  0  0  0  0  0  0
   44.9490  -36.4932  -10.9382 C   0  0  1  0  0  0  0  0  0  0  0  0
   45.7595  -36.6826  -12.2397 C   0  0  0  0  0  0  0  0  0  0  0  0
   44.8763  -36.4399  -13.5501 C   0  0  0  0  0  0  0  0  0  0  0  0
   45.4006  -35.1567  -14.2364 C   0  0  0  0  0  0  0  0  0  0  0  0
   46.4121  -35.4122  -15.2541 N   0  0  0  0  0  0  0  0  0  0  0  0
   47.7106  -35.1320  -15.1555 C   0  0  0  0  0  0  0  0  0  0  0  0
   48.6316  -36.1330  -15.1806 N   0  0  0  0  0  0  0  0  0  0  0  0
   48.0928  -33.8404  -15.1318 N   0  0  0  0  0  0  0  0  0  0  0  0
   47.0809  -33.1232  -15.0879 H   0  0  0  0  0  0  0  0  0  0  0  0
   44.5988  -37.8971  -10.3945 C   0  0  0  0  0  0  0  0  0  0  0  0
   45.3931  -38.8386  -10.4995 O   0  0  0  0  0  0  0  0  0  0  0  0
   43.5626  -37.9711   -9.5325 N   0  0  0  0  0  0  0  0  0  0  0  0
   43.2933  -39.1097   -8.6544 C   0  0  0  0  0  0  0  0  0  0  0  0
   43.8807  -38.8844   -7.3604 C   0  0  0  0  0  0  0  0  0  0  0  0
   44.8436  -39.7276   -6.8372 C   0  0  0  0  0  0  0  0  0  0  0  0
   45.0118  -39.8547   -5.4305 C   0  0  0  0  0  0  0  0  0  0  0  0
   44.3594  -39.0350   -4.5332 C   0  0  0  0  0  0  0  0  0  0  0  0
   44.4080  -39.2058   -3.0998 C   0  0  0  0  0  0  0  0  0  0  0  0
   44.6019  -40.4684   -2.6803 N   0  0  0  0  0  0  0  0  0  0  0  0
   44.1941  -38.2276   -2.3085 N   0  0  0  0  0  0  0  0  0  0  0  0
   45.2555  -38.0087   -1.7317 H   0  0  0  0  0  0  0  0  0  0  0  0
   43.4628  -38.0501   -5.0878 C   0  0  0  0  0  0  0  0  0  0  0  0
   43.2742  -37.9666   -6.4571 C   0  0  0  0  0  0  0  0  0  0  0  0
  9 10  1  6
 11  9  1  0
  9  8  1  0
 11 12  2  0
 13 11  1  0
  8  7  1  0
  7  6  1  0
  6  5  1  0
  5  3  1  0
  3  2  2  0
  3  4  1  0
 14 13  1  0
 23 14  1  0
 14 15  1  6
 23 24  2  0
 25 23  1  0
 15 16  1  0
 16 17  1  0
 17 18  1  0
 18 19  1  0
 19 20  1  0
 19 21  2  0
 26 25  1  0
 35 26  1  0
 26 27  1  6
 35 36  2  0
 37 35  1  0
 27 28  1  0
 28 29  1  0
 29 30  1  0
 30 31  1  0
 31 33  2  0
 31 32  1  0
 38 37  1  0
 47 38  1  0
 38 39  1  6
 47 48  2  0
 49 47  1  0
 39 40  1  0
 40 41  1  0
 41 42  1  0
 42 43  1  0
 43 45  2  0
 43 44  1  0
 56 57  2  0
 50 56  1  0
 56 58  1  0
 50 49  1  0
 50 51  1  6
 52 51  1  0
 53 54  1  0
 53 52  1  0
 54 55  1  0
 58 59  1  0
 59 68  1  0
 59 60  1  6
 68 69  2  0
 68 70  1  0
 60 61  1  0
 61 62  1  0
 62 63  1  0
 63 64  1  0
 64 66  2  0
 64 65  1  0
 70 71  1  0
 71 72  1  0
 72 73  4  0
 72 81  4  0
 73 74  4  0
 74 75  4  0
 75 76  1  0
 75 80  4  0
 76 77  1  0
 76 78  2  0
 80 81  4  0
  2  1  1  0
 21 22  1  0
 33 34  1  0
 45 46  1  0
 66 67  1  0
 78 79  1  0
M  CHG  2  10   1  55   1
M  END
$$$$
