
     RDKit          3D

 81 83  0  0  0  0  0  0  0  0999 V2000
   50.4228  -33.1604    0.8209 H   0  0  0  0  0  0  0  0  0  0  0  0
   51.1110  -32.8384    1.8166 N   0  0  0  0  0  0  0  0  0  0  0  0
   52.4074  -32.8448    1.3243 C   0  0  0  0  0  0  0  0  0  0  0  0
   53.4043  -32.7969    2.3159 N   0  0  0  0  0  0  0  0  0  0  0  0
   52.6762  -32.7633    0.0563 N   0  0  0  0  0  0  0  0  0  0  0  0
   53.9513  -32.5161   -0.6290 C   0  0  0  0  0  0  0  0  0  0  0  0
   53.9435  -32.9267   -2.1155 C   0  0  0  0  0  0  0  0  0  0  0  0
   54.5566  -31.8649   -2.9852 C   0  0  0  0  0  0  0  0  0  0  0  0
   55.2794  -32.5225   -4.1313 C   0  0  1  0  0  0  0  0  0  0  0  0
   56.3609  -33.4000   -3.6422 N   0  0  0  0  0  0  0  0  0  0  0  0
   56.1367  -34.2123   -2.6182 C   0  0  0  0  0  0  0  0  0  0  0  0
   56.1239  -33.8263   -1.4314 O   0  0  0  0  0  0  0  0  0  0  0  0
   55.7868  -35.6926   -2.9238 C   0  0  1  0  0  0  0  0  0  0  0  0
   56.6234  -36.2347   -3.9964 N   0  0  0  0  0  0  0  0  0  0  0  0
   55.9402  -36.5446   -1.6187 C   0  0  0  0  0  0  0  0  0  0  0  0
   56.6395  -35.8018   -0.6229 C   0  0  0  0  0  0  0  0  0  0  0  0
   57.8696  -35.2520   -1.0025 C   0  0  0  0  0  0  0  0  0  0  0  0
   58.0562  -33.8666   -0.9483 C   0  0  0  0  0  0  0  0  0  0  0  0
   57.1173  -33.1228   -0.2703 C   0  0  0  0  0  0  0  0  0  0  0  0
   55.9988  -33.7133    0.3543 C   0  0  0  0  0  0  0  0  0  0  0  0
   55.3440  -33.0538    1.3781 C   0  0  0  0  0  0  0  0  0  0  0  0
   54.9314  -33.6956    2.4920 C   0  0  0  0  0  0  0  0  0  0  0  0
   54.9417  -35.1038    2.5280 C   0  0  0  0  0  0  0  0  0  0  0  0
   55.3969  -35.7633    1.4204 C   0  0  0  0  0  0  0  0  0  0  0  0
   55.8794  -35.1165    0.2997 C   0  0  0  0  0  0  0  0  0  0  0  0
   54.2693  -33.2979   -5.0421 C   0  0  0  0  0  0  0  0  0  0  0  0
   54.4806  -34.5043   -5.2648 O   0  0  0  0  0  0  0  0  0  0  0  0
   53.0658  -32.7346   -5.1012 N   0  0  0  0  0  0  0  0  0  0  0  0
   51.8455  -33.4889   -5.4662 C   0  0  1  0  0  0  0  0  0  0  0  0
   50.6853  -33.0968   -4.5780 C   0  0  0  0  0  0  0  0  0  0  0  0
   50.8453  -33.5743   -3.1438 C   0  0  0  0  0  0  0  0  0  0  0  0
   52.3779  -33.6696   -2.7995 C   0  0  0  0  0  0  0  0  0  0  0  0
   52.6607  -33.8954   -1.3896 N   0  0  0  0  0  0  0  0  0  0  0  0
   51.7140  -34.0044   -0.3928 C   0  0  0  0  0  0  0  0  0  0  0  0
   52.0594  -33.9762    0.9109 N   0  0  0  0  0  0  0  0  0  0  0  0
   50.3992  -33.9552   -0.7760 N   0  0  0  0  0  0  0  0  0  0  0  0
   50.3841  -34.0886   -1.9881 H   0  0  0  0  0  0  0  0  0  0  0  0
   51.5403  -33.3277   -6.9746 C   0  0  0  0  0  0  0  0  0  0  0  0
   50.8757  -32.3233   -7.3678 O   0  0  0  0  0  0  0  0  0  0  0  0
   52.2449  -34.0707   -7.8691 N   0  0  0  0  0  0  0  0  0  0  0  0
   51.6768  -35.2514   -8.5266 C   0  0  1  0  0  0  0  0  0  0  0  0
   52.0567  -36.5688   -7.7862 C   0  0  0  0  0  0  0  0  0  0  0  0
   51.3880  -36.5724   -6.3747 C   0  0  0  0  0  0  0  0  0  0  0  0
   52.0370  -35.4896   -5.4633 C   0  0  0  0  0  0  0  0  0  0  0  0
   51.0477  -34.5382   -4.9230 N   0  0  0  0  0  0  0  0  0  0  0  0
   49.7032  -34.6878   -5.0030 C   0  0  0  0  0  0  0  0  0  0  0  0
   49.1113  -35.3557   -6.0297 N   0  0  0  0  0  0  0  0  0  0  0  0
   48.9086  -34.1801   -4.0537 N   0  0  0  0  0  0  0  0  0  0  0  0
   49.0167  -32.9608   -4.2443 H   0  0  0  0  0  0  0  0  0  0  0  0
   50.1512  -35.1097   -8.7154 C   0  0  0  0  0  0  0  0  0  0  0  0
   49.3845  -35.1727   -7.7700 O   0  0  0  0  0  0  0  0  0  0  0  0
   49.6877  -34.9957   -9.9752 N   0  0  0  0  0  0  0  0  0  0  0  0
   48.3207  -35.3336  -10.3314 C   0  0  1  0  0  0  0  0  0  0  0  0
   48.2296  -35.6564  -11.8455 C   0  0  0  0  0  0  0  0  0  0  0  0
   47.8015  -34.4321  -12.6747 C   0  0  0  0  0  0  0  0  0  0  0  0
   46.4278  -34.7438  -13.3260 C   0  0  0  0  0  0  0  0  0  0  0  0
   46.3615  -34.1580  -14.7432 C   0  0  0  0  0  0  0  0  0  0  0  0
   47.6092  -34.4769  -15.5036 N   0  0  0  0  0  0  0  0  0  0  0  0
   47.7770  -36.6212   -9.5544 C   0  0  0  0  0  0  0  0  0  0  0  0
   48.5902  -37.4789   -9.1955 O   0  0  0  0  0  0  0  0  0  0  0  0
   46.4463  -36.7689   -9.5889 N   0  0  0  0  0  0  0  0  0  0  0  0
   45.7303  -37.4695  -10.7083 C   0  0  2  0  0  0  0  0  0  0  0  0
   44.7497  -36.4821  -11.3812 C   0  0  0  0  0  0  0  0  0  0  0  0
   45.1569  -36.1855  -12.8049 C   0  0  0  0  0  0  0  0  0  0  0  0
   45.0793  -34.6200  -13.0819 C   0  0  0  0  0  0  0  0  0  0  0  0
   45.0932  -34.4043  -14.5864 C   0  0  0  0  0  0  0  0  0  0  0  0
   45.0744  -35.6477  -15.3889 N   0  0  0  0  0  0  0  0  0  0  0  0
   44.9638  -38.5841  -10.0703 C   0  0  0  0  0  0  0  0  0  0  0  0
   45.5134  -39.7314  -10.0359 O   0  0  0  0  0  0  0  0  0  0  0  0
   43.8228  -38.3104   -9.3982 N   0  0  0  0  0  0  0  0  0  0  0  0
   43.2065  -39.2827   -8.5768 C   0  0  0  0  0  0  0  0  0  0  0  0
   43.6949  -39.1605   -7.2147 C   0  0  0  0  0  0  0  0  0  0  0  0
   42.8728  -38.5918   -6.2011 C   0  0  0  0  0  0  0  0  0  0  0  0
   43.2081  -38.7296   -4.8360 C   0  0  0  0  0  0  0  0  0  0  0  0
   44.3748  -39.3975   -4.4218 C   0  0  0  0  0  0  0  0  0  0  0  0
   44.6866  -39.6723   -3.0727 C   0  0  0  0  0  0  0  0  0  0  0  0
   45.3638  -40.7179   -2.7338 N   0  0  0  0  0  0  0  0  0  0  0  0
   44.0006  -38.9303   -2.1052 N   0  0  0  0  0  0  0  0  0  0  0  0
   44.7121  -39.0030   -1.1147 H   0  0  0  0  0  0  0  0  0  0  0  0
   45.2494  -39.8344   -5.4462 C   0  0  0  0  0  0  0  0  0  0  0  0
   44.9003  -39.6679   -6.8134 C   0  0  0  0  0  0  0  0  0  0  0  0
 13 14  1  6
 11 13  1  0
 13 15  1  0
 11 12  2  0
 10 11  1  0
 15 16  1  0
 16 17  4  0
 16 25  4  0
 17 18  4  0
 18 19  4  0
 25 20  4  0
 25 24  4  0
 20 19  4  0
 20 21  4  0
 24 23  4  0
 23 22  4  0
 21 22  4  0
  9 10  1  0
 26  9  1  0
  9  8  1  6
 26 27  2  0
 28 26  1  0
  8  7  1  0
  7  6  1  0
  6  5  1  0
  5  3  1  0
  3  2  2  0
  3  4  1  0
 29 28  1  0
 38 29  1  0
 29 30  1  1
 38 39  2  0
 40 38  1  0
 30 31  1  0
 31 32  1  0
 32 33  1  0
 33 34  1  0
 34 36  2  0
 34 35  1  0
 41 40  1  0
 50 41  1  0
 41 42  1  1
 50 51  2  0
 52 50  1  0
 42 43  1  0
 43 44  1  0
 44 45  1  0
 45 46  1  0
 46 47  1  0
 46 48  2  0
 59 60  2  0
 53 59  1  0
 59 61  1  0
 53 52  1  0
 53 54  1  6
 55 54  1  0
 56 57  1  0
 56 55  1  0
 57 58  1  0
 61 62  1  0
 62 68  1  0
 62 63  1  6
 68 69  2  0
 68 70  1  0
 63 64  1  0
 64 65  1  0
 65 66  1  0
 66 67  1  0
 70 71  1  0
 71 72  1  0
 72 73  4  0
 72 81  4  0
 73 74  4  0
 74 75  4  0
 75 76  1  0
 75 80  4  0
 76 77  1  0
 76 78  2  0
 80 81  4  0
  2  1  1  0
 36 37  1  0
 48 49  1  0
 78 79  1  0
M  CHG  3  14   1  58   1  67   1
M  END
$$$$
