
     RDKit          3D

 81 83  0  0  0  0  0  0  0  0999 V2000
   50.6738  -33.4966  -10.0430 H   0  0  0  0  0  0  0  0  0  0  0  0
   51.3690  -32.7510  -10.0090 N   0  0  0  0  0  0  0  0  0  0  0  0
   52.6650  -33.0330  -10.2070 C   0  0  0  0  0  0  0  0  0  0  0  0
   53.5580  -32.0260  -10.1520 N   0  0  0  0  0  0  0  0  0  0  0  0
   53.0350  -34.3190  -10.4520 N   0  0  0  0  0  0  0  0  0  0  0  0
   54.3980  -34.8360  -10.7290 C   0  0  0  0  0  0  0  0  0  0  0  0
   55.3710  -34.6030   -9.5650 C   0  0  0  0  0  0  0  0  0  0  0  0
   55.1440  -35.6200   -8.4400 C   0  0  0  0  0  0  0  0  0  0  0  0
   56.2330  -35.4170   -7.3760 C   0  0  2  0  0  0  0  0  0  0  0  0
   57.3680  -36.3280   -7.6390 N   0  0  0  0  0  0  0  0  0  0  0  0
   58.6480  -35.9450   -7.4480 C   0  0  0  0  0  0  0  0  0  0  0  0
   58.9640  -34.8300   -7.0310 O   0  0  0  0  0  0  0  0  0  0  0  0
   59.7460  -36.9870   -7.7850 C   0  0  1  0  0  0  0  0  0  0  0  0
   59.1830  -38.3370   -7.9930 N   0  0  0  0  0  0  0  0  0  0  0  0
   60.5320  -36.5150   -9.0180 C   0  0  0  0  0  0  0  0  0  0  0  0
   61.9010  -36.7010   -8.8280 C   0  0  0  0  0  0  0  0  0  0  0  0
   62.3940  -37.1520   -7.6070 C   0  0  0  0  0  0  0  0  0  0  0  0
   63.7600  -37.3320   -7.4280 C   0  0  0  0  0  0  0  0  0  0  0  0
   64.6370  -37.0590   -8.4700 C   0  0  0  0  0  0  0  0  0  0  0  0
   64.1480  -36.6070   -9.6900 C   0  0  0  0  0  0  0  0  0  0  0  0
   65.0260  -36.3340  -10.7320 C   0  0  0  0  0  0  0  0  0  0  0  0
   64.5390  -35.8810  -11.9520 C   0  0  0  0  0  0  0  0  0  0  0  0
   63.1720  -35.7010  -12.1320 C   0  0  0  0  0  0  0  0  0  0  0  0
   62.2940  -35.9740  -11.0900 C   0  0  0  0  0  0  0  0  0  0  0  0
   62.7810  -36.4270   -9.8690 C   0  0  0  0  0  0  0  0  0  0  0  0
   55.6390  -35.6270   -5.9690 C   0  0  0  0  0  0  0  0  0  0  0  0
   55.4460  -36.7540   -5.5120 O   0  0  0  0  0  0  0  0  0  0  0  0
   55.3340  -34.4970   -5.3060 N   0  0  0  0  0  0  0  0  0  0  0  0
   54.7500  -34.5150   -3.9490 C   0  0  1  0  0  0  0  0  0  0  0  0
   54.8990  -33.1160   -3.3150 C   0  0  0  0  0  0  0  0  0  0  0  0
   54.3790  -33.0900   -1.8490 C   0  0  0  0  0  0  0  0  0  0  0  0
   54.7620  -31.7500   -1.2030 C   0  0  0  0  0  0  0  0  0  0  0  0
   54.1270  -31.5390    0.1130 N   0  0  0  0  0  0  0  0  0  0  0  0
   52.9480  -30.9040    0.2880 C   0  0  0  0  0  0  0  0  0  0  0  0
   52.4460  -30.7280    1.5410 N   0  0  0  0  0  0  0  0  0  0  0  0
   52.2690  -30.4630   -0.7940 N   0  0  0  0  0  0  0  0  0  0  0  0
   52.6481  -30.6112   -1.7293 H   0  0  0  0  0  0  0  0  0  0  0  0
   53.2670  -34.9730   -4.0050 C   0  0  0  0  0  0  0  0  0  0  0  0
   52.8150  -35.7200   -3.1340 O   0  0  0  0  0  0  0  0  0  0  0  0
   52.5170  -34.4950   -5.0270 N   0  0  0  0  0  0  0  0  0  0  0  0
   51.0870  -34.8430   -5.1970 C   0  0  1  0  0  0  0  0  0  0  0  0
   50.2070  -33.6220   -4.8400 C   0  0  0  0  0  0  0  0  0  0  0  0
   50.5260  -33.1070   -3.4100 C   0  0  0  0  0  0  0  0  0  0  0  0
   49.8550  -34.0220   -2.3720 C   0  0  0  0  0  0  0  0  0  0  0  0
   50.0520  -33.5520   -0.9840 N   0  0  0  0  0  0  0  0  0  0  0  0
   50.8640  -34.1760   -0.0950 C   0  0  0  0  0  0  0  0  0  0  0  0
   50.9600  -33.7460    1.1820 N   0  0  0  0  0  0  0  0  0  0  0  0
   51.5760  -35.2460   -0.4780 N   0  0  0  0  0  0  0  0  0  0  0  0
   51.5061  -35.5888   -1.4361 H   0  0  0  0  0  0  0  0  0  0  0  0
   50.8440  -35.3500   -6.6450 C   0  0  0  0  0  0  0  0  0  0  0  0
   51.4930  -34.8980   -7.5880 O   0  0  0  0  0  0  0  0  0  0  0  0
   49.9260  -36.3230   -6.7860 N   0  0  0  0  0  0  0  0  0  0  0  0
   49.6260  -36.9630   -8.0890 C   0  0  1  0  0  0  0  0  0  0  0  0
   49.9760  -38.4570   -7.9520 C   0  0  0  0  0  0  0  0  0  0  0  0
   51.4830  -38.6890   -7.7110 C   0  0  0  0  0  0  0  0  0  0  0  0
   52.1330  -39.2840   -8.9790 C   0  0  0  0  0  0  0  0  0  0  0  0
   53.6080  -39.6440   -8.7210 C   0  0  0  0  0  0  0  0  0  0  0  0
   54.3690  -39.7550   -9.9820 N   0  0  0  0  0  0  0  0  0  0  0  0
   48.1260  -36.8660   -8.4220 C   0  0  0  0  0  0  0  0  0  0  0  0
   47.2830  -36.8390   -7.5190 O   0  0  0  0  0  0  0  0  0  0  0  0
   47.8240  -36.8350   -9.7420 N   0  0  0  0  0  0  0  0  0  0  0  0
   46.4490  -36.8100  -10.2660 C   0  0  1  0  0  0  0  0  0  0  0  0
   46.4550  -36.6410  -11.8050 C   0  0  0  0  0  0  0  0  0  0  0  0
   46.9740  -35.2620  -12.2110 C   0  0  0  0  0  0  0  0  0  0  0  0
   47.0440  -35.1240  -13.7600 C   0  0  0  0  0  0  0  0  0  0  0  0
   47.1920  -33.6340  -14.1090 C   0  0  0  0  0  0  0  0  0  0  0  0
   47.7490  -33.4040  -15.4560 N   0  0  0  0  0  0  0  0  0  0  0  0
   45.8590  -38.1810   -9.9240 C   0  0  0  0  0  0  0  0  0  0  0  0
   46.5580  -39.1790  -10.0430 O   0  0  0  0  0  0  0  0  0  0  0  0
   44.5950  -38.2140   -9.4610 N   0  0  0  0  0  0  0  0  0  0  0  0
   43.9660  -39.4680   -8.9960 C   0  0  0  0  0  0  0  0  0  0  0  0
   44.0890  -39.5130   -7.5550 C   0  0  0  0  0  0  0  0  0  0  0  0
   43.0050  -39.2450   -6.7310 C   0  0  0  0  0  0  0  0  0  0  0  0
   43.1000  -39.2610   -5.3270 C   0  0  0  0  0  0  0  0  0  0  0  0
   44.3050  -39.5670   -4.6880 C   0  0  0  0  0  0  0  0  0  0  0  0
   44.4120  -39.5980   -3.2770 C   0  0  0  0  0  0  0  0  0  0  0  0
   45.6070  -39.8370   -2.7100 N   0  0  0  0  0  0  0  0  0  0  0  0
   43.3260  -39.3470   -2.5330 N   0  0  0  0  0  0  0  0  0  0  0  0
   42.4359  -39.1368   -2.9846 H   0  0  0  0  0  0  0  0  0  0  0  0
   45.4000  -39.8430   -5.5100 C   0  0  0  0  0  0  0  0  0  0  0  0
   45.2980  -39.8120   -6.9200 C   0  0  0  0  0  0  0  0  0  0  0  0
 13 14  1  6
 11 13  1  0
 13 15  1  0
 11 12  2  0
 10 11  1  0
 15 16  1  0
 16 17  2  0
 16 25  1  0
 17 18  1  0
 18 19  2  0
 25 20  2  0
 25 24  1  0
 20 19  1  0
 20 21  1  0
 24 23  2  0
 23 22  1  0
 21 22  2  0
  9 10  1  0
 26  9  1  0
  9  8  1  6
 26 27  2  0
 28 26  1  0
  8  7  1  0
  7  6  1  0
  6  5  1  0
  5  3  1  0
  3  2  2  0
  3  4  1  0
 29 28  1  0
 38 29  1  0
 29 30  1  6
 38 39  2  0
 40 38  1  0
 30 31  1  0
 31 32  1  0
 32 33  1  0
 33 34  1  0
 34 36  2  0
 34 35  1  0
 41 40  1  0
 50 41  1  0
 41 42  1  6
 50 51  2  0
 52 50  1  0
 42 43  1  0
 43 44  1  0
 44 45  1  0
 45 46  1  0
 46 47  1  0
 46 48  2  0
 59 60  2  0
 53 59  1  0
 59 61  1  0
 53 52  1  0
 53 54  1  1
 55 54  1  0
 56 57  1  0
 56 55  1  0
 57 58  1  0
 61 62  1  0
 62 68  1  0
 62 63  1  6
 68 69  2  0
 68 70  1  0
 63 64  1  0
 64 65  1  0
 65 66  1  0
 66 67  1  0
 70 71  1  0
 71 72  1  0
 72 73  2  0
 72 81  1  0
 73 74  1  0
 74 75  2  0
 75 76  1  0
 75 80  1  0
 76 77  1  0
 76 78  2  0
 80 81  2  0
  2  1  1  0
 36 37  1  0
 48 49  1  0
 78 79  1  0
M  CHG  3  14   1  58   1  67   1
M  END
$$$$
