
     RDKit          3D

 76 78  0  0  0  0  0  0  0  0999 V2000
   52.5688  -30.7240   -1.7031 H   0  0  0  0  0  0  0  0  0  0  0  0
   52.2380  -30.5070   -0.7630 N   0  0  0  0  0  0  0  0  0  0  0  0
   52.9230  -30.9560    0.3170 C   0  0  0  0  0  0  0  0  0  0  0  0
   52.4970  -30.6820    1.5930 N   0  0  0  0  0  0  0  0  0  0  0  0
   54.0440  -31.6910    0.1120 N   0  0  0  0  0  0  0  0  0  0  0  0
   54.5950  -31.9980   -1.2300 C   0  0  0  0  0  0  0  0  0  0  0  0
   54.2410  -33.4040   -1.7310 C   0  0  0  0  0  0  0  0  0  0  0  0
   54.7370  -33.5390   -3.2030 C   0  0  0  0  0  0  0  0  0  0  0  0
   54.5010  -34.9600   -3.7720 C   0  0  2  0  0  0  0  0  0  0  0  0
   55.3520  -35.1900   -4.9710 N   0  0  0  0  0  0  0  0  0  0  0  0
   55.3970  -36.4520   -5.5970 C   0  0  0  0  0  0  0  0  0  0  0  0
   54.6950  -37.3580   -5.1510 O   0  0  0  0  0  0  0  0  0  0  0  0
   56.2540  -36.6760   -6.6860 C   0  0  1  0  0  0  0  0  0  0  0  0
   56.5860  -38.1190   -6.7650 N   0  0  0  0  0  0  0  0  0  0  0  0
   55.6620  -36.1790   -7.9950 C   0  0  0  0  0  0  0  0  0  0  0  0
   56.7580  -35.4870   -8.8130 C   0  0  0  0  0  0  0  0  0  0  0  0
   57.9470  -36.4000   -9.0930 C   0  0  0  0  0  0  0  0  0  0  0  0
   58.6810  -35.8170  -10.2830 C   0  0  0  0  0  0  0  0  0  0  0  0
   57.6850  -35.5830  -11.3520 N   0  0  0  0  0  0  0  0  0  0  0  0
   57.7720  -34.5020  -12.2340 C   0  0  0  0  0  0  0  0  0  0  0  0
   58.7110  -33.7120  -12.1510 O   0  0  0  0  0  0  0  0  0  0  0  0
   56.7890  -34.3410  -13.2030 C   0  0  0  0  0  0  0  0  0  0  0  0
   55.6730  -33.4500  -12.6690 C   0  0  0  0  0  0  0  0  0  0  0  0
   54.6510  -33.2250  -13.7040 N   0  0  2  0  0  0  0  0  0  0  0  0
   53.6110  -32.2990  -13.2420 C   0  0  0  0  0  0  0  0  0  0  0  0
   52.6900  -31.9380  -14.4090 C   0  0  0  0  0  0  0  0  0  0  0  0
   52.6020  -33.0350  -15.3970 N   0  0  2  0  0  0  0  0  0  0  0  0
   51.4240  -32.9750  -16.2940 C   0  0  0  0  0  0  0  0  0  0  0  0
   50.2730  -32.0670  -15.8290 C   0  0  0  0  0  0  0  0  0  0  0  0
   49.4520  -32.5610  -14.7950 C   0  0  0  0  0  0  0  0  0  0  0  0
   49.8120  -32.4360  -13.6260 O   0  0  0  0  0  0  0  0  0  0  0  0
   48.1660  -33.1350  -15.0350 N   0  0  0  0  0  0  0  0  0  0  0  0
   47.3610  -33.5570  -13.8460 C   0  0  0  0  0  0  0  0  0  0  0  0
   47.1790  -35.0810  -13.6130 C   0  0  0  0  0  0  0  0  0  0  0  0
   46.7920  -35.3020  -12.1110 C   0  0  0  0  0  0  0  0  0  0  0  0
   46.2270  -36.7100  -11.8270 C   0  0  0  0  0  0  0  0  0  0  0  0
   46.2630  -37.0000  -10.2910 C   0  0  1  0  0  0  0  0  0  0  0  0
   45.6950  -38.2530   -9.9880 C   0  0  0  0  0  0  0  0  0  0  0  0
   46.3570  -39.2760  -10.1730 O   0  0  0  0  0  0  0  0  0  0  0  0
   44.4460  -38.2630   -9.4570 N   0  0  0  0  0  0  0  0  0  0  0  0
   43.7780  -39.5160   -8.9960 C   0  0  0  0  0  0  0  0  0  0  0  0
   43.8910  -39.5550   -7.5610 C   0  0  0  0  0  0  0  0  0  0  0  0
   45.0370  -40.0630   -6.9520 C   0  0  0  0  0  0  0  0  0  0  0  0
   45.1800  -40.0840   -5.5550 C   0  0  0  0  0  0  0  0  0  0  0  0
   44.1780  -39.5970   -4.7120 C   0  0  0  0  0  0  0  0  0  0  0  0
   44.3380  -39.6310   -3.3040 C   0  0  0  0  0  0  0  0  0  0  0  0
   43.2950  -39.3710   -2.5110 N   0  0  0  0  0  0  0  0  0  0  0  0
   45.5430  -39.8790   -2.7860 N   0  0  0  0  0  0  0  0  0  0  0  0
   46.3393  -40.0421   -3.4022 H   0  0  0  0  0  0  0  0  0  0  0  0
   43.0270  -39.0820   -5.3180 C   0  0  0  0  0  0  0  0  0  0  0  0
   42.8850  -39.0680   -6.7250 C   0  0  0  0  0  0  0  0  0  0  0  0
   47.6670  -37.0280   -9.7830 N   0  0  0  0  0  0  0  0  0  0  0  0
   48.0460  -37.0300   -8.4290 C   0  0  0  0  0  0  0  0  0  0  0  0
   47.1600  -36.9730   -7.5720 O   0  0  0  0  0  0  0  0  0  0  0  0
   49.4200  -37.1370   -8.0830 C   0  0  2  0  0  0  0  0  0  0  0  0
   49.8380  -38.6490   -7.9850 C   0  0  1  0  0  0  0  0  0  0  0  0
   49.7330  -39.3260   -9.3690 C   0  0  0  0  0  0  0  0  0  0  0  0
   51.2750  -38.8160   -7.4710 C   0  0  0  0  0  0  0  0  0  0  0  0
   48.9360  -39.4200   -7.0030 C   0  0  0  0  0  0  0  0  0  0  0  0
   49.7160  -36.4810   -6.7820 N   0  0  0  0  0  0  0  0  0  0  0  0
   50.7060  -35.4890   -6.5990 C   0  0  0  0  0  0  0  0  0  0  0  0
   51.3430  -35.0920   -7.5800 O   0  0  0  0  0  0  0  0  0  0  0  0
   50.9730  -34.9930   -5.2950 C   0  0  2  0  0  0  0  0  0  0  0  0
   50.1530  -33.7200   -4.9560 C   0  0  0  0  0  0  0  0  0  0  0  0
   50.4610  -33.1940   -3.5290 C   0  0  0  0  0  0  0  0  0  0  0  0
   49.7420  -34.0670   -2.4790 C   0  0  0  0  0  0  0  0  0  0  0  0
   49.9670  -33.5830   -1.0960 N   0  0  0  0  0  0  0  0  0  0  0  0
   50.7930  -34.1770   -0.2000 C   0  0  0  0  0  0  0  0  0  0  0  0
   50.9040  -33.6940    1.0500 N   0  0  0  0  0  0  0  0  0  0  0  0
   51.5080  -35.2620   -0.5440 N   0  0  0  0  0  0  0  0  0  0  0  0
   51.4318  -35.6454   -1.4861 H   0  0  0  0  0  0  0  0  0  0  0  0
   52.4360  -34.7420   -5.1220 N   0  0  0  0  0  0  0  0  0  0  0  0
   53.1220  -35.2180   -3.9880 C   0  0  0  0  0  0  0  0  0  0  0  0
   52.4940  -35.9020   -3.1750 O   0  0  0  0  0  0  0  0  0  0  0  0
   52.7000  -34.3530  -14.7640 C   0  0  0  0  0  0  0  0  0  0  0  0
   54.0470  -34.5190  -14.0650 C   0  0  0  0  0  0  0  0  0  0  0  0
 13 14  1  6
 13 11  1  0
 15 13  1  0
 11 12  2  0
 11 10  1  0
 16 15  1  0
 17 16  1  0
 18 17  1  0
 19 18  1  0
 20 19  1  0
 10  9  1  0
  9 73  1  0
  9  8  1  6
 73 74  2  0
 72 73  1  0
  8  7  1  0
  7  6  1  0
  6  5  1  0
  5  3  1  0
  3  2  2  0
  3  4  1  0
 63 72  1  0
 61 63  1  0
 63 64  1  6
 61 62  2  0
 60 61  1  0
 64 65  1  0
 65 66  1  0
 66 67  1  0
 67 68  1  0
 68 69  1  0
 68 70  2  0
 55 60  1  1
 55 56  1  0
 53 55  1  0
 56 57  1  6
 56 58  1  0
 56 59  1  0
 53 54  2  0
 52 53  1  0
 37 52  1  0
 37 38  1  6
 36 37  1  0
 38 39  2  0
 38 40  1  0
 35 36  1  0
 34 35  1  0
 33 34  1  0
 32 33  1  0
 30 32  1  0
 40 41  1  0
 41 42  1  0
 42 43  2  0
 42 51  1  0
 43 44  1  0
 44 45  2  0
 45 46  1  0
 50 45  1  0
 46 48  2  0
 46 47  1  0
 51 50  2  0
 22 20  1  0
 20 21  2  0
 23 22  1  0
 24 23  1  1
 26 25  1  0
 25 24  1  0
 27 26  1  1
 28 29  1  0
 27 28  1  0
 29 30  1  0
 30 31  2  0
 75 76  1  0
 75 27  1  0
 76 24  1  0
  2  1  1  0
 70 71  1  0
 48 49  1  0
M  CHG  3  14   1  24   1  27   1
M  END
$$$$
