
     RDKit          3D

 78 83  0  0  0  0  0  0  0  0999 V2000
  -34.6501    3.9995   49.6762 C   0  0  0  0  0  0  0  0  0  0  0  0
  -33.3817    4.3698   50.4179 C   0  0  0  0  0  0  0  0  0  0  0  0
  -32.5819    3.5417   50.7477 O   0  0  0  0  0  0  0  0  0  0  0  0
  -33.4867    5.5505   50.9962 N   0  0  0  0  0  0  0  0  0  0  0  0
  -33.4932    5.6980   52.4708 C   0  0  1  0  0  0  0  0  0  0  0  0
  -33.1324    4.3184   53.0269 C   0  0  1  0  0  0  0  0  0  0  0  0
  -31.9603    3.8321   52.3395 O   0  0  0  0  0  0  0  0  0  0  0  0
  -32.8251    4.3911   54.5349 C   0  0  0  0  0  0  0  0  0  0  0  0
  -31.9872    5.5911   54.9400 C   0  0  2  0  0  0  0  0  0  0  0  0
  -30.6314    5.4391   54.4977 O   0  0  0  0  0  0  0  0  0  0  0  0
  -30.2104    4.3458   53.7057 C   0  0  2  0  0  0  0  0  0  0  0  0
  -29.8382    3.1837   54.5584 C   0  0  1  0  0  0  0  0  0  0  0  0
  -28.7244    2.4409   53.9467 O   0  0  0  0  0  0  0  0  0  0  0  0
  -27.4881    3.1694   54.0779 C   0  0  1  0  0  0  0  0  0  0  0  0
  -27.5385    4.1018   53.0396 O   0  0  0  0  0  0  0  0  0  0  0  0
  -28.8339    4.7081   53.0462 C   0  0  1  0  0  0  0  0  0  0  0  0
  -29.7187    3.7288   52.3270 C   0  0  0  0  0  0  0  0  0  0  0  0
  -28.9164    2.5969   51.9333 O   0  0  0  0  0  0  0  0  0  0  0  0
  -29.3981    5.2179   54.3482 C   0  0  2  0  0  0  0  0  0  0  0  0
  -29.9283    6.5128   54.1462 O   0  0  0  0  0  0  0  0  0  0  0  0
  -28.2199    5.2617   55.3477 C   0  0  2  0  0  0  0  0  0  0  0  0
  -27.1422    6.1380   54.7465 O   0  0  0  0  0  0  0  0  0  0  0  0
  -27.3546    6.3196   53.3731 C   0  0  2  0  0  0  0  0  0  0  0  0
  -26.1310    6.7269   52.7277 O   0  0  0  0  0  0  0  0  0  0  0  0
  -25.8393    8.1275   52.8671 C   0  0  2  0  0  0  0  0  0  0  0  0
  -25.6725    8.3411   54.3137 C   0  0  0  0  0  0  0  0  0  0  0  0
  -25.0779    7.2549   55.0091 O   0  0  0  0  0  0  0  0  0  0  0  0
  -26.9681    8.9944   52.2464 C   0  0  1  0  0  0  0  0  0  0  0  0
  -26.9435    8.8364   50.8352 O   0  0  0  0  0  0  0  0  0  0  0  0
  -28.2762    8.5403   52.7900 C   0  0  1  0  0  0  0  0  0  0  0  0
  -29.3951    9.0811   52.0775 O   0  0  0  0  0  0  0  0  0  0  0  0
  -28.5050    7.0940   52.9634 C   0  0  1  0  0  0  0  0  0  0  0  0
  -29.2907    6.4551   51.9625 O   0  0  0  0  0  0  0  0  0  0  0  0
  -29.2344    5.0268   51.8836 C   0  0  1  0  0  0  0  0  0  0  0  0
  -30.4113    4.3420   51.4312 O   0  0  0  0  0  0  0  0  0  0  0  0
  -30.2714    3.1425   50.5924 C   0  0  1  0  0  0  0  0  0  0  0  0
  -31.6597    2.7696   50.1803 C   0  0  0  0  0  0  0  0  0  0  0  0
  -29.3189    3.4307   49.4485 C   0  0  1  0  0  0  0  0  0  0  0  0
  -30.0209    4.0585   48.3476 O   0  0  0  0  0  0  0  0  0  0  0  0
  -28.1319    4.2187   49.7706 C   0  0  1  0  0  0  0  0  0  0  0  0
  -28.1775    5.4779   49.0882 O   0  0  0  0  0  0  0  0  0  0  0  0
  -27.9507    4.6199   51.2047 C   0  0  1  0  0  0  0  0  0  0  0  0
  -26.9703    5.6550   51.3706 O   0  0  0  0  0  0  0  0  0  0  0  0
  -27.5582    3.8881   55.4288 C   0  0  1  0  0  0  0  0  0  0  0  0
  -28.2402    3.0487   56.3801 N   0  0  0  0  0  0  0  0  0  0  0  0
  -28.7999    1.8962   56.0145 C   0  0  0  0  0  0  0  0  0  0  0  0
  -30.1256    1.5944   56.6401 C   0  0  0  0  0  0  0  0  0  0  0  0
  -28.5599    1.4031   54.8594 O   0  0  0  0  0  0  0  0  0  0  0  0
  -29.6305    3.5477   56.0011 C   0  0  1  0  0  0  0  0  0  0  0  0
  -28.3763    4.3475   56.2418 C   0  0  0  0  0  0  0  0  0  0  0  0
  -27.7254    3.7313   57.3260 O   0  0  0  0  0  0  0  0  0  0  0  0
  -30.5575    5.2468   55.8366 O   0  0  0  0  0  0  0  0  0  0  0  0
  -29.3011    5.8689   55.4516 C   0  0  1  0  0  0  0  0  0  0  0  0
  -28.7726    6.9467   56.0803 O   0  0  0  0  0  0  0  0  0  0  0  0
  -27.3563    7.2818   56.0254 C   0  0  2  0  0  0  0  0  0  0  0  0
  -26.4743    6.1215   56.5972 C   0  0  1  0  0  0  0  0  0  0  0  0
  -24.9725    6.3061   56.5248 C   0  0  0  0  0  0  0  0  0  0  0  0
  -24.2563    4.9937   56.5818 O   0  0  0  0  0  0  0  0  0  0  0  0
  -26.8080    5.9724   57.9918 O   0  0  0  0  0  0  0  0  0  0  0  0
  -26.5465    7.1566   58.7605 C   0  0  1  0  0  0  0  0  0  0  0  0
  -25.1837    7.4466   58.5575 O   0  0  0  0  0  0  0  0  0  0  0  0
  -27.5058    8.2397   58.2875 C   0  0  1  0  0  0  0  0  0  0  0  0
  -27.3135    9.4391   59.0674 O   0  0  0  0  0  0  0  0  0  0  0  0
  -27.2733    8.5314   56.8154 C   0  0  2  0  0  0  0  0  0  0  0  0
  -28.1365    9.5766   56.2855 O   0  0  0  0  0  0  0  0  0  0  0  0
  -29.5648    4.7909   56.4558 C   0  0  1  0  0  0  0  0  0  0  0  0
  -30.7694    4.0825   56.0599 O   0  0  0  0  0  0  0  0  0  0  0  0
  -31.7667    5.6944   56.5053 C   0  0  0  0  0  0  0  0  0  0  0  0
  -32.5860    6.4522   57.0965 O   0  0  0  0  0  0  0  0  0  0  0  0
  -31.1580    4.7488   57.1284 O   0  0  0  0  0  0  0  0  0  0  0  0
  -32.5467    6.7530   54.4147 O   0  0  0  0  0  0  0  0  0  0  0  0
  -32.4914    6.7786   52.9748 C   0  0  1  0  0  0  0  0  0  0  0  0
  -31.0507    6.6860   52.5685 C   0  0  2  0  0  0  0  0  0  0  0  0
  -30.5448    7.9118   52.0106 O   0  0  0  0  0  0  0  0  0  0  0  0
  -30.8047    5.5907   51.4982 C   0  0  1  0  0  0  0  0  0  0  0  0
  -31.9599    4.8177   51.1764 O   0  0  0  0  0  0  0  0  0  0  0  0
  -30.2421    6.1776   50.2142 C   0  0  0  0  0  0  0  0  0  0  0  0
  -29.4799    5.1573   49.4953 O   0  0  0  0  0  0  0  0  0  0  0  0
  9 68  1  0
 68 70  1  0
 68 69  2  0
  9  8  1  0
  9 71  1  0
  9 10  1  6
  8  6  1  0
  6  5  1  0
  6  7  1  6
 72  5  1  0
  5  4  1  1
 72 73  1  0
 72 71  1  1
 73 75  1  0
 73 74  1  6
 75 77  1  0
 75 76  1  1
 77 78  1  0
  2  1  1  0
  4  2  1  0
  2  3  2  0
 53 66  1  0
 53 52  1  0
 53 54  1  1
 66 11  1  0
 66 67  1  6
 11 12  1  0
 11 10  1  6
 49 12  1  0
 12 13  1  6
 49 50  1  6
 52 49  1  0
 50 51  1  0
 14 13  1  1
 14 44  1  0
 14 15  1  0
 44 21  1  0
 44 45  1  1
 21 19  1  0
 21 22  1  6
 16 19  1  0
 19 20  1  6
 16 17  1  6
 15 16  1  0
 17 18  1  0
 46 47  1  0
 45 46  1  0
 46 48  2  0
 23 22  1  1
 23 32  1  0
 23 24  1  0
 32 30  1  0
 32 33  1  6
 30 28  1  0
 30 31  1  1
 25 28  1  0
 28 29  1  1
 25 26  1  1
 24 25  1  0
 26 27  1  0
 34 33  1  1
 34 42  1  0
 34 35  1  0
 42 40  1  0
 42 43  1  1
 40 38  1  0
 40 41  1  6
 36 38  1  0
 38 39  1  6
 36 37  1  6
 35 36  1  0
 64 62  1  0
 62 60  1  0
 62 63  1  6
 55 64  1  0
 64 65  1  1
 55 56  1  0
 55 54  1  1
 56 57  1  1
 56 59  1  0
 57 58  1  0
 60 61  1  6
 60 59  1  0
M  END
$$$$
