
     RDKit          3D

 14 14  0  0  0  0  0  0  0  0999 V2000
  -20.5535   17.9907  -15.0135 C   0  0  0  0  0  0  0  0  0  0  0  0
  -21.8886   17.9492  -14.5623 O   0  0  0  0  0  0  0  0  0  0  0  0
  -22.1688   17.0218  -13.5926 C   0  0  0  0  0  0  0  0  0  0  0  0
  -22.1918   15.6605  -13.8187 C   0  0  0  0  0  0  0  0  0  0  0  0
  -22.2311   14.7649  -12.7648 C   0  0  0  0  0  0  0  0  0  0  0  0
  -22.3366   13.2897  -12.9068 C   0  0  0  0  0  0  0  0  0  0  0  0
  -22.9727   12.7174  -14.0058 C   0  0  0  0  0  0  0  0  0  0  0  0
  -22.3148   11.4804  -14.5724 C   0  0  0  0  0  0  0  0  0  0  0  0
  -22.1183   11.4665  -15.7822 O   0  0  0  0  0  0  0  0  0  0  0  0
  -22.2555   10.4507  -13.8475 O   0  0  0  0  0  0  0  0  0  0  0  0
  -22.2736   15.2407  -11.4558 C   0  0  0  0  0  0  0  0  0  0  0  0
  -22.2717   16.5876  -11.1536 C   0  0  0  0  0  0  0  0  0  0  0  0
  -22.2525   17.4793  -12.2518 C   0  0  0  0  0  0  0  0  0  0  0  0
  -22.2533   18.8231  -11.9826 O   0  0  0  0  0  0  0  0  0  0  0  0
 13 12  4  0
 13  3  4  0
 13 14  1  0
 12 11  4  0
 11  5  4  0
  3  4  4  0
  3  2  1  0
  4  5  4  0
  5  6  1  0
  2  1  1  0
  6  7  2  0
  7  8  1  0
  8  9  2  0
  8 10  1  0
M  END
$$$$
