
     RDKit          3D

 14 14  0  0  0  0  0  0  0  0999 V2000
  -22.7320   18.7490  -14.6300 C   0  0  0  0  0  0  0  0  0  0  0  0
  -22.7840   18.8850  -13.2230 O   0  0  0  0  0  0  0  0  0  0  0  0
  -22.8900   17.6790  -12.5000 C   0  0  0  0  0  0  0  0  0  0  0  0
  -22.7680   16.4530  -13.1320 C   0  0  0  0  0  0  0  0  0  0  0  0
  -22.9020   15.2950  -12.3670 C   0  0  0  0  0  0  0  0  0  0  0  0
  -22.7510   13.9200  -12.9500 C   0  0  0  0  0  0  0  0  0  0  0  0
  -22.4700   13.6980  -14.2330 C   0  0  0  0  0  0  0  0  0  0  0  0
  -22.2930   12.2570  -14.6130 C   0  0  0  0  0  0  0  0  0  0  0  0
  -22.2500   11.9480  -15.8230 O   0  0  0  0  0  0  0  0  0  0  0  0
  -22.1160   11.3960  -13.6960 O   0  0  0  0  0  0  0  0  0  0  0  0
  -23.1240   15.3670  -11.0080 C   0  0  0  0  0  0  0  0  0  0  0  0
  -23.2410   16.5840  -10.3710 C   0  0  0  0  0  0  0  0  0  0  0  0
  -23.1290   17.7350  -11.1370 C   0  0  0  0  0  0  0  0  0  0  0  0
  -23.2420   18.9750  -10.4980 O   0  0  0  0  0  0  0  0  0  0  0  0
 13 12  2  0
 13  3  1  0
 13 14  1  0
 12 11  1  0
 11  5  2  0
  3  4  2  0
  3  2  1  0
  4  5  1  0
  5  6  1  0
  2  1  1  0
  6  7  2  0
  7  8  1  0
  8  9  2  0
  8 10  1  0
M  END
$$$$
