
     RDKit          3D

 14 14  0  0  0  0  0  0  0  0999 V2000
  -21.6881   18.5037  -14.2249 C   0  0  0  0  0  0  0  0  0  0  0  0
  -22.6780   18.2720  -13.2394 O   0  0  0  0  0  0  0  0  0  0  0  0
  -22.6800   17.0444  -12.5186 C   0  0  0  0  0  0  0  0  0  0  0  0
  -22.6247   15.7858  -13.0781 C   0  0  0  0  0  0  0  0  0  0  0  0
  -22.6291   14.6717  -12.2493 C   0  0  0  0  0  0  0  0  0  0  0  0
  -22.5966   13.2741  -12.7866 C   0  0  0  0  0  0  0  0  0  0  0  0
  -22.8718   12.9888  -14.0911 C   0  0  0  0  0  0  0  0  0  0  0  0
  -22.0909   11.9701  -14.8164 C   0  0  0  0  0  0  0  0  0  0  0  0
  -22.0039   11.9491  -16.3057 C   0  0  0  0  0  0  0  0  0  0  0  0
  -21.9829   10.8390  -14.2393 O   0  0  0  0  0  0  0  0  0  0  0  0
  -22.6154   14.8254  -10.8491 C   0  0  0  0  0  0  0  0  0  0  0  0
  -22.6269   16.0822  -10.2663 C   0  0  0  0  0  0  0  0  0  0  0  0
  -22.6476   17.1940  -11.1164 C   0  0  0  0  0  0  0  0  0  0  0  0
  -22.6353   18.4675  -10.5911 O   0  0  0  0  0  0  0  0  0  0  0  0
  8  9  1  0
  7  8  1  0
  8 10  2  0
  2  1  1  0
  3  2  1  0
  3 13  4  0
  4  3  4  0
 13 14  1  0
 12 13  4  0
 11 12  4  0
  5 11  4  0
  5  4  4  0
  6  5  1  0
  6  7  2  0
M  END
$$$$
