
     RDKit          3D

 14 14  0  0  0  0  0  0  0  0999 V2000
  -21.9850   12.7770  -17.2360 C   0  0  0  0  0  0  0  0  0  0  0  0
  -22.0430   11.9190  -16.1090 O   0  0  0  0  0  0  0  0  0  0  0  0
  -22.2760   12.5060  -14.8530 C   0  0  0  0  0  0  0  0  0  0  0  0
  -22.4400   13.8810  -14.6720 C   0  0  0  0  0  0  0  0  0  0  0  0
  -22.6720   14.3740  -13.3850 C   0  0  0  0  0  0  0  0  0  0  0  0
  -22.8590   15.8600  -13.1180 C   0  0  0  0  0  0  0  0  0  0  0  0
  -22.6620   16.7730  -14.0840 C   0  0  0  0  0  0  0  0  0  0  0  0
  -22.8780   18.2280  -13.7420 C   0  0  0  0  0  0  0  0  0  0  0  0
  -23.3610   18.6110  -12.3620 C   0  0  0  0  0  0  0  0  0  0  0  0
  -22.6870   19.0790  -14.5840 O   0  0  0  0  0  0  0  0  0  0  0  0
  -22.7530   13.5160  -12.2950 C   0  0  0  0  0  0  0  0  0  0  0  0
  -22.5910   12.1490  -12.4660 C   0  0  0  0  0  0  0  0  0  0  0  0
  -22.3560   11.6580  -13.7490 C   0  0  0  0  0  0  0  0  0  0  0  0
  -22.1980   10.2810  -13.9380 O   0  0  0  0  0  0  0  0  0  0  0  0
  8  9  1  0
  7  8  1  0
  8 10  2  0
  2  1  1  0
  3  2  1  0
  3 13  2  0
  4  3  1  0
 13 14  1  0
 12 13  1  0
 11 12  2  0
  5 11  1  0
  5  4  2  0
  6  5  1  0
  6  7  2  0
M  END
$$$$
