
     RDKit          3D

 13 13  0  0  0  0  0  0  0  0999 V2000
  -20.3677   13.7301  -15.6984 C   0  0  0  0  0  0  0  0  0  0  0  0
  -21.7253   13.1874  -15.6734 O   0  0  0  0  0  0  0  0  0  0  0  0
  -22.4621   13.3294  -14.4947 C   0  0  0  0  0  0  0  0  0  0  0  0
  -22.7234   14.5863  -13.8689 C   0  0  0  0  0  0  0  0  0  0  0  0
  -22.7669   14.6525  -12.4719 C   0  0  0  0  0  0  0  0  0  0  0  0
  -22.7538   15.9927  -11.7621 C   0  0  0  0  0  0  0  0  0  0  0  0
  -22.6836   17.1501  -12.4022 C   0  0  0  0  0  0  0  0  0  0  0  0
  -22.0207   17.1279  -13.7660 C   0  0  0  0  0  0  0  0  0  0  0  0
  -20.7850   17.1229  -13.8178 O   0  0  0  0  0  0  0  0  0  0  0  0
  -22.7562   13.5057  -11.6883 C   0  0  0  0  0  0  0  0  0  0  0  0
  -22.6950   12.2584  -12.2860 C   0  0  0  0  0  0  0  0  0  0  0  0
  -22.6404   12.1862  -13.6791 C   0  0  0  0  0  0  0  0  0  0  0  0
  -22.5830   10.9534  -14.3341 O   0  0  0  0  0  0  0  0  0  0  0  0
  5  4  4  0
  5 10  4  0
  5  6  1  0
  4  3  4  0
  3  2  1  0
  3 12  4  0
  2  1  1  0
 12 13  1  0
 12 11  4  0
 11 10  4  0
  6  7  2  0
  7  8  1  0
  8  9  2  0
M  END
$$$$
