
     RDKit          3D

 42 42  0  0  0  0  0  0  0  0999 V2000
   30.4331  -12.7248   14.6341 C   0  0  0  0  0  0  0  0  0  0  0  0
   30.6047  -13.5090   13.3621 C   0  0  0  0  0  0  0  0  0  0  0  0
   30.9434  -12.7217   12.0847 C   0  0  2  0  0  0  0  0  0  0  0  0
   29.6722  -12.3885   11.2830 C   0  0  0  0  0  0  0  0  0  0  0  0
   31.9439  -13.4729   11.2291 C   0  0  1  0  0  0  0  0  0  0  0  0
   33.2930  -13.3200   11.7442 N   0  0  0  0  0  0  0  0  0  0  0  0
   31.5865  -14.9576   11.1743 C   0  0  0  0  0  0  0  0  0  0  0  0
   32.4855  -15.8044   11.1961 O   0  0  0  0  0  0  0  0  0  0  0  0
   30.2938  -15.2599   11.3880 N   0  0  0  0  0  0  0  0  0  0  0  0
   29.5988  -16.3591   10.6558 C   0  0  2  0  0  0  0  0  0  0  0  0
   29.7854  -16.2498    9.1351 C   0  0  0  0  0  0  0  0  0  0  0  0
   29.0560  -17.3185    8.3545 C   0  0  0  0  0  0  0  0  0  0  0  0
   30.1246  -18.7382    7.8296 S   0  0  0  0  0  0  0  0  0  0  0  0
   29.0672  -20.0579    8.1287 C   0  0  0  0  0  0  0  0  0  0  0  0
   28.1199  -16.3068   11.0610 C   0  0  0  0  0  0  0  0  0  0  0  0
   27.5407  -15.2033   10.9982 O   0  0  0  0  0  0  0  0  0  0  0  0
   27.4966  -17.4654   11.1029 N   0  0  0  0  0  0  0  0  0  0  0  0
   26.1148  -17.6400   11.4704 C   0  0  2  0  0  0  0  0  0  0  0  0
   26.0776  -18.1353   12.8978 C   0  0  0  0  0  0  0  0  0  0  0  0
   26.4587  -17.4413   13.8383 O   0  0  0  0  0  0  0  0  0  0  0  0
   25.2766  -19.1989   13.1084 N   0  0  0  0  0  0  0  0  0  0  0  0
   25.7527  -20.5653   13.2535 C   0  0  2  0  0  0  0  0  0  0  0  0
   25.5266  -21.1395   14.6605 C   0  0  0  0  0  0  0  0  0  0  0  0
   25.6475  -20.1260   15.6498 O   0  0  0  0  0  0  0  0  0  0  0  0
   27.2169  -20.6472   12.8375 C   0  0  0  0  0  0  0  0  0  0  0  0
   28.0913  -19.9297   13.4773 O   0  0  0  0  0  0  0  0  0  0  0  0
   27.5494  -21.3271   11.7703 N   0  0  0  0  0  0  0  0  0  0  0  0
   28.8035  -22.0010   11.5345 C   0  0  2  0  0  0  0  0  0  0  0  0
   29.7917  -21.0349   10.9066 C   0  0  0  0  0  0  0  0  0  0  0  0
   30.3581  -21.5252    9.5930 C   0  0  0  0  0  0  0  0  0  0  0  0
   31.7266  -21.6264    9.3957 C   0  0  0  0  0  0  0  0  0  0  0  0
   32.2816  -21.5656    8.0951 C   0  0  0  0  0  0  0  0  0  0  0  0
   31.4479  -21.5927    7.0191 C   0  0  0  0  0  0  0  0  0  0  0  0
   30.0578  -21.5571    7.1834 C   0  0  0  0  0  0  0  0  0  0  0  0
   29.5403  -21.5775    8.4689 C   0  0  0  0  0  0  0  0  0  0  0  0
   28.6191  -23.2190   10.6337 C   0  0  0  0  0  0  0  0  0  0  0  0
   29.5742  -24.0198   10.4807 O   0  0  0  0  0  0  0  0  0  0  0  0
   27.8173  -23.2303    9.7444 O   0  0  0  0  0  0  0  0  0  0  0  0
   25.3939  -18.6232   10.5207 C   0  0  1  0  0  0  0  0  0  0  0  0
   25.4265  -18.1070    9.0717 C   0  0  0  0  0  0  0  0  0  0  0  0
   26.0061  -20.0063   10.6353 C   0  0  0  0  0  0  0  0  0  0  0  0
   27.5145  -19.9901   10.6024 C   0  0  0  0  0  0  0  0  0  0  0  0
  5  6  1  6
  5  7  1  0
  5  3  1  0
  7  8  2  0
  7  9  1  0
  3  2  1  0
  3  4  1  6
  2  1  1  0
  9 10  1  0
 10 15  1  0
 10 11  1  1
 15 16  2  0
 15 17  1  0
 11 12  1  0
 12 13  1  0
 13 14  1  0
 18 17  1  6
 18 19  1  0
 18 39  1  0
 19 20  2  0
 19 21  1  0
 39 41  1  0
 39 40  1  6
 41 42  1  0
 21 22  1  0
 22 25  1  0
 22 23  1  6
 25 26  2  0
 25 27  1  0
 23 24  1  0
 27 28  1  0
 28 36  1  0
 28 29  1  1
 36 37  2  0
 36 38  1  0
 29 30  1  0
 30 31  4  0
 30 35  4  0
 31 32  4  0
 35 34  4  0
 32 33  4  0
 34 33  4  0
M  CHG  1   6   1
M  END
$$$$
