
     RDKit          3D

 64 65  0  0  0  0  0  0  0  0999 V2000
   50.0586  -32.2477    1.4987 H   0  0  0  0  0  0  0  0  0  0  0  0
   51.1201  -32.0393    1.9839 N   0  0  0  0  0  0  0  0  0  0  0  0
   52.0575  -32.1731    1.0016 C   0  0  0  0  0  0  0  0  0  0  0  0
   53.3870  -32.3377    1.2749 N   0  0  0  0  0  0  0  0  0  0  0  0
   51.6989  -32.0501   -0.2710 N   0  0  0  0  0  0  0  0  0  0  0  0
   50.8031  -31.0082   -0.8191 C   0  0  0  0  0  0  0  0  0  0  0  0
   51.2205  -30.5477   -2.1996 C   0  0  0  0  0  0  0  0  0  0  0  0
   52.5602  -31.2819   -2.5547 C   0  0  0  0  0  0  0  0  0  0  0  0
   52.6055  -31.6672   -4.0461 C   0  0  1  0  0  0  0  0  0  0  0  0
   53.4889  -32.8432   -4.1917 N   0  0  0  0  0  0  0  0  0  0  0  0
   53.1159  -34.1382   -3.8545 C   0  0  0  0  0  0  0  0  0  0  0  0
   51.9167  -34.3506   -3.6741 O   0  0  0  0  0  0  0  0  0  0  0  0
   54.1052  -35.1283   -4.0453 C   0  0  0  0  0  0  0  0  0  0  0  0
   54.1199  -36.3878   -3.1428 C   0  0  0  0  0  0  0  0  0  0  0  0
   53.1680  -36.3647   -1.9458 C   0  0  0  0  0  0  0  0  0  0  0  0
   52.1879  -37.3206   -2.2360 C   0  0  0  0  0  0  0  0  0  0  0  0
   52.0335  -38.3182   -1.5560 O   0  0  0  0  0  0  0  0  0  0  0  0
   51.2329  -37.0266   -3.1877 N   0  0  0  0  0  0  0  0  0  0  0  0
   50.2304  -38.0639   -3.5159 C   0  0  0  0  0  0  0  0  0  0  0  0
   49.5942  -37.7988   -4.9087 C   0  0  0  0  0  0  0  0  0  0  0  0
   48.6418  -36.6355   -4.7875 C   0  0  0  0  0  0  0  0  0  0  0  0
   47.6307  -36.6862   -5.8755 C   0  0  0  0  0  0  0  0  0  0  0  0
   48.1412  -35.9695   -7.1370 C   0  0  1  0  0  0  0  0  0  0  0  0
   47.0945  -36.1245   -8.0742 C   0  0  0  0  0  0  0  0  0  0  0  0
   45.9538  -36.4085   -7.6634 O   0  0  0  0  0  0  0  0  0  0  0  0
   47.4316  -36.1625   -9.3450 N   0  0  0  0  0  0  0  0  0  0  0  0
   46.4490  -36.3855  -10.4586 C   0  0  2  0  0  0  0  0  0  0  0  0
   45.7390  -35.1042  -10.8259 C   0  0  0  0  0  0  0  0  0  0  0  0
   46.6919  -33.9797  -11.3352 C   0  0  0  0  0  0  0  0  0  0  0  0
   46.8777  -34.1887  -12.8739 C   0  0  0  0  0  0  0  0  0  0  0  0
   47.9483  -33.3604  -13.4033 N   0  0  0  0  0  0  0  0  0  0  0  0
   48.6751  -33.7478  -14.5021 C   0  0  0  0  0  0  0  0  0  0  0  0
   49.2440  -34.9765  -14.5738 N   0  0  0  0  0  0  0  0  0  0  0  0
   48.9500  -32.8539  -15.4171 N   0  0  0  0  0  0  0  0  0  0  0  0
   48.5115  -31.7662  -15.0113 H   0  0  0  0  0  0  0  0  0  0  0  0
   45.3956  -37.3815   -9.9037 C   0  0  0  0  0  0  0  0  0  0  0  0
   45.7299  -38.5612   -9.8640 O   0  0  0  0  0  0  0  0  0  0  0  0
   44.3075  -36.9066   -9.2500 N   0  0  0  0  0  0  0  0  0  0  0  0
   43.2186  -37.8371   -8.8332 C   0  0  0  0  0  0  0  0  0  0  0  0
   43.3479  -38.1042   -7.4368 C   0  0  0  0  0  0  0  0  0  0  0  0
   43.9112  -39.3202   -6.9827 C   0  0  0  0  0  0  0  0  0  0  0  0
   43.9668  -39.5880   -5.6176 C   0  0  0  0  0  0  0  0  0  0  0  0
   43.5056  -38.6524   -4.6673 C   0  0  0  0  0  0  0  0  0  0  0  0
   43.6959  -38.9193   -3.2756 C   0  0  0  0  0  0  0  0  0  0  0  0
   43.9395  -40.2121   -2.7840 N   0  0  0  0  0  0  0  0  0  0  0  0
   43.5298  -37.9335   -2.3907 N   0  0  0  0  0  0  0  0  0  0  0  0
   44.1875  -37.0007   -2.8232 H   0  0  0  0  0  0  0  0  0  0  0  0
   42.9052  -37.5590   -5.1069 C   0  0  0  0  0  0  0  0  0  0  0  0
   42.7767  -37.2404   -6.4829 C   0  0  0  0  0  0  0  0  0  0  0  0
   48.3998  -34.5819   -6.7872 N   0  0  0  0  0  0  0  0  0  0  0  0
   49.6600  -33.9281   -6.8724 C   0  0  0  0  0  0  0  0  0  0  0  0
   50.6636  -34.6186   -7.0514 O   0  0  0  0  0  0  0  0  0  0  0  0
   49.7804  -32.6076   -6.4436 C   0  0  1  0  0  0  0  0  0  0  0  0
   48.6664  -32.2135   -5.4543 C   0  0  0  0  0  0  0  0  0  0  0  0
   48.9439  -32.9153   -4.1049 C   0  0  0  0  0  0  0  0  0  0  0  0
   48.8760  -31.8364   -2.9364 C   0  0  0  0  0  0  0  0  0  0  0  0
   49.8041  -32.1664   -1.8352 N   0  0  0  0  0  0  0  0  0  0  0  0
   49.5730  -31.9893   -0.5332 C   0  0  0  0  0  0  0  0  0  0  0  0
   50.5975  -31.7094    0.3245 N   0  0  0  0  0  0  0  0  0  0  0  0
   48.3505  -32.0482   -0.0382 N   0  0  0  0  0  0  0  0  0  0  0  0
   47.6954  -32.8317   -0.7596 H   0  0  0  0  0  0  0  0  0  0  0  0
   51.1356  -32.4148   -5.8347 N   0  0  0  0  0  0  0  0  0  0  0  0
   51.3146  -31.8372   -4.5686 C   0  0  0  0  0  0  0  0  0  0  0  0
   50.3757  -31.2126   -4.0570 O   0  0  0  0  0  0  0  0  0  0  0  0
 10  9  1  0
 10 11  1  0
  9 63  1  0
  9  8  1  6
 63 64  2  0
 63 62  1  0
  8  7  1  0
  7  6  1  0
  6  5  1  0
  5  3  1  0
  3  2  2  0
  3  4  1  0
 62 53  1  0
 53 51  1  0
 53 54  1  6
 51 52  2  0
 51 50  1  0
 54 55  1  0
 55 56  1  0
 56 57  1  0
 57 58  1  0
 58 59  1  0
 58 60  2  0
 50 23  1  0
 23 24  1  6
 23 22  1  0
 24 25  2  0
 24 26  1  0
 22 21  1  0
 21 20  1  0
 20 19  1  0
 19 18  1  0
 18 16  1  0
 26 27  1  0
 27 36  1  0
 27 28  1  6
 36 37  2  0
 36 38  1  0
 28 29  1  0
 29 30  1  0
 30 31  1  0
 31 32  1  0
 32 34  2  0
 32 33  1  0
 38 39  1  0
 39 40  1  0
 40 41  4  0
 40 49  4  0
 41 42  4  0
 42 43  4  0
 43 44  1  0
 43 48  4  0
 44 45  1  0
 44 46  2  0
 48 49  4  0
 16 15  1  0
 16 17  2  0
 15 14  1  0
 14 13  1  0
 13 11  1  0
 11 12  2  0
  2  1  1  0
 60 61  1  0
 34 35  1  0
 46 47  1  0
M  END
$$$$
