
     RDKit          3D

 64 65  0  0  0  0  0  0  0  0999 V2000
   51.8309  -30.2719   -1.6150 H   0  0  0  0  0  0  0  0  0  0  0  0
   51.4530  -30.1190   -0.6800 N   0  0  0  0  0  0  0  0  0  0  0  0
   52.1540  -30.5130    0.4040 C   0  0  0  0  0  0  0  0  0  0  0  0
   51.6710  -30.3080    1.6540 N   0  0  0  0  0  0  0  0  0  0  0  0
   53.3510  -31.1070    0.2450 N   0  0  0  0  0  0  0  0  0  0  0  0
   53.9740  -31.3560   -1.0610 C   0  0  0  0  0  0  0  0  0  0  0  0
   53.4980  -32.6870   -1.6420 C   0  0  0  0  0  0  0  0  0  0  0  0
   54.0030  -32.7620   -3.0970 C   0  0  0  0  0  0  0  0  0  0  0  0
   53.7930  -34.1680   -3.6700 C   0  0  2  0  0  0  0  0  0  0  0  0
   54.5810  -34.2690   -4.9100 N   0  0  0  0  0  0  0  0  0  0  0  0
   54.5370  -35.3520   -5.7820 C   0  0  0  0  0  0  0  0  0  0  0  0
   53.7460  -36.2780   -5.5620 O   0  0  0  0  0  0  0  0  0  0  0  0
   55.3860  -35.2600   -6.9100 C   0  0  0  0  0  0  0  0  0  0  0  0
   55.9620  -36.5640   -7.5280 C   0  0  0  0  0  0  0  0  0  0  0  0
   55.7390  -37.8660   -6.7490 C   0  0  0  0  0  0  0  0  0  0  0  0
   54.8200  -38.5980   -7.5000 C   0  0  0  0  0  0  0  0  0  0  0  0
   55.1790  -39.5510   -8.1930 O   0  0  0  0  0  0  0  0  0  0  0  0
   53.4740  -38.2080   -7.5310 N   0  0  0  0  0  0  0  0  0  0  0  0
   52.5410  -38.9690   -8.3910 C   0  0  0  0  0  0  0  0  0  0  0  0
   51.2950  -38.1470   -8.7140 C   0  0  0  0  0  0  0  0  0  0  0  0
   50.4400  -38.0820   -7.4720 C   0  0  0  0  0  0  0  0  0  0  0  0
   49.0170  -37.7580   -7.8630 C   0  0  0  0  0  0  0  0  0  0  0  0
   48.7640  -36.2520   -7.9900 C   0  0  1  0  0  0  0  0  0  0  0  0
   47.4180  -36.1640   -8.3500 C   0  0  0  0  0  0  0  0  0  0  0  0
   46.5390  -36.2310   -7.4950 O   0  0  0  0  0  0  0  0  0  0  0  0
   47.1680  -36.0740   -9.6700 N   0  0  0  0  0  0  0  0  0  0  0  0
   45.8040  -36.1070  -10.2320 C   0  0  1  0  0  0  0  0  0  0  0  0
   45.8100  -35.9620  -11.7600 C   0  0  0  0  0  0  0  0  0  0  0  0
   46.2200  -34.5580  -12.2300 C   0  0  0  0  0  0  0  0  0  0  0  0
   46.4670  -34.6540  -13.7510 C   0  0  0  0  0  0  0  0  0  0  0  0
   46.9050  -33.3640  -14.3070 N   0  0  0  0  0  0  0  0  0  0  0  0
   48.1680  -32.9220  -14.2150 C   0  0  0  0  0  0  0  0  0  0  0  0
   48.5180  -31.7330  -14.7390 N   0  0  0  0  0  0  0  0  0  0  0  0
   49.0820  -33.6670  -13.5850 N   0  0  0  0  0  0  0  0  0  0  0  0
   48.8167  -34.5642  -13.1788 H   0  0  0  0  0  0  0  0  0  0  0  0
   45.2090  -37.4780   -9.8470 C   0  0  0  0  0  0  0  0  0  0  0  0
   45.9070  -38.4750   -9.9890 O   0  0  0  0  0  0  0  0  0  0  0  0
   43.9560  -37.5200   -9.3490 N   0  0  0  0  0  0  0  0  0  0  0  0
   43.3470  -38.7960   -8.8930 C   0  0  0  0  0  0  0  0  0  0  0  0
   43.4530  -38.8750   -7.4660 C   0  0  0  0  0  0  0  0  0  0  0  0
   42.3620  -38.6160   -6.6360 C   0  0  0  0  0  0  0  0  0  0  0  0
   42.4790  -38.6780   -5.2420 C   0  0  0  0  0  0  0  0  0  0  0  0
   43.6890  -38.9950   -4.6270 C   0  0  0  0  0  0  0  0  0  0  0  0
   43.7990  -39.0580   -3.2150 C   0  0  0  0  0  0  0  0  0  0  0  0
   44.9710  -39.3830   -2.6580 N   0  0  0  0  0  0  0  0  0  0  0  0
   42.7420  -38.7440   -2.4660 N   0  0  0  0  0  0  0  0  0  0  0  0
   41.8678  -38.4627   -2.9099 H   0  0  0  0  0  0  0  0  0  0  0  0
   44.7740  -39.2530   -5.4530 C   0  0  0  0  0  0  0  0  0  0  0  0
   44.6620  -39.1850   -6.8510 C   0  0  0  0  0  0  0  0  0  0  0  0
   49.0340  -35.6520   -6.6620 N   0  0  0  0  0  0  0  0  0  0  0  0
   50.0270  -34.6860   -6.4200 C   0  0  0  0  0  0  0  0  0  0  0  0
   50.7000  -34.2450   -7.3530 O   0  0  0  0  0  0  0  0  0  0  0  0
   50.2440  -34.2410   -5.1040 C   0  0  2  0  0  0  0  0  0  0  0  0
   49.3610  -33.0260   -4.7660 C   0  0  0  0  0  0  0  0  0  0  0  0
   49.6580  -32.5380   -3.3270 C   0  0  0  0  0  0  0  0  0  0  0  0
   49.0170  -33.4940   -2.2980 C   0  0  0  0  0  0  0  0  0  0  0  0
   49.2360  -33.0440   -0.9000 N   0  0  0  0  0  0  0  0  0  0  0  0
   50.0590  -33.6360   -0.0030 C   0  0  0  0  0  0  0  0  0  0  0  0
   50.1390  -33.1690    1.2630 N   0  0  0  0  0  0  0  0  0  0  0  0
   50.8010  -34.6990   -0.3530 N   0  0  0  0  0  0  0  0  0  0  0  0
   50.7477  -35.0678   -1.3025 H   0  0  0  0  0  0  0  0  0  0  0  0
   51.6950  -33.9440   -4.9170 N   0  0  0  0  0  0  0  0  0  0  0  0
   52.4260  -34.4610   -3.8270 C   0  0  0  0  0  0  0  0  0  0  0  0
   51.8630  -35.2040   -3.0180 O   0  0  0  0  0  0  0  0  0  0  0  0
 10  9  1  0
 10 11  1  0
  9 63  1  0
  9  8  1  6
 63 64  2  0
 63 62  1  0
  8  7  1  0
  7  6  1  0
  6  5  1  0
  5  3  1  0
  3  2  2  0
  3  4  1  0
 62 53  1  0
 53 51  1  0
 53 54  1  6
 51 52  2  0
 51 50  1  0
 54 55  1  0
 55 56  1  0
 56 57  1  0
 57 58  1  0
 58 59  1  0
 58 60  2  0
 50 23  1  0
 23 24  1  1
 23 22  1  0
 24 25  2  0
 24 26  1  0
 22 21  1  0
 21 20  1  0
 20 19  1  0
 19 18  1  0
 18 16  1  0
 26 27  1  0
 27 36  1  0
 27 28  1  6
 36 37  2  0
 36 38  1  0
 28 29  1  0
 29 30  1  0
 30 31  1  0
 31 32  1  0
 32 34  2  0
 32 33  1  0
 38 39  1  0
 39 40  1  0
 40 41  2  0
 40 49  1  0
 41 42  1  0
 42 43  2  0
 43 44  1  0
 43 48  1  0
 44 45  1  0
 44 46  2  0
 48 49  2  0
 16 15  1  0
 16 17  2  0
 15 14  1  0
 14 13  1  0
 13 11  1  0
 11 12  2  0
  2  1  1  0
 60 61  1  0
 34 35  1  0
 46 47  1  0
M  END
$$$$
