
     RDKit          3D

 80 82  0  0  0  0  0  0  0  0999 V2000
   54.0965  -34.6365   -2.7144 H   0  0  0  0  0  0  0  0  0  0  0  0
   54.1998  -34.8066   -3.8724 N   0  0  0  0  0  0  0  0  0  0  0  0
   55.4721  -35.1697   -4.0482 C   0  0  0  0  0  0  0  0  0  0  0  0
   56.1916  -35.7274   -3.0157 N   0  0  0  0  0  0  0  0  0  0  0  0
   56.1155  -34.8889   -5.1836 N   0  0  0  0  0  0  0  0  0  0  0  0
   56.4686  -35.8445   -6.2272 C   0  0  0  0  0  0  0  0  0  0  0  0
   57.7504  -35.4767   -7.0159 C   0  0  0  0  0  0  0  0  0  0  0  0
   58.3418  -36.7940   -7.5583 C   0  0  0  0  0  0  0  0  0  0  0  0
   57.4588  -37.9819   -6.8165 C   0  0  1  0  0  0  0  0  0  0  0  0
   57.0068  -37.3111   -5.5791 N   0  0  0  0  0  0  0  0  0  0  0  0
   56.3556  -38.0313   -4.5889 C   0  0  0  0  0  0  0  0  0  0  0  0
   56.2126  -39.2397   -4.7265 O   0  0  0  0  0  0  0  0  0  0  0  0
   55.9053  -37.3636   -3.4507 C   0  0  2  0  0  0  0  0  0  0  0  0
   55.7978  -38.3109   -2.3199 N   0  0  0  0  0  0  0  0  0  0  0  0
   54.5359  -36.8046   -3.8287 C   0  0  0  0  0  0  0  0  0  0  0  0
   53.9351  -35.9746   -2.7357 C   0  0  0  0  0  0  0  0  0  0  0  0
   52.6006  -35.4507   -3.2325 C   0  0  0  0  0  0  0  0  0  0  0  0
   52.6203  -33.9774   -3.0247 C   0  0  0  0  0  0  0  0  0  0  0  0
   52.8892  -33.7786   -1.6072 N   0  0  0  0  0  0  0  0  0  0  0  0
   53.6810  -32.7591   -1.1053 C   0  0  0  0  0  0  0  0  0  0  0  0
   51.9714  -34.0035    0.4595 O   0  0  0  0  0  0  0  0  0  0  0  0
   53.8018  -32.6353    0.2722 C   0  0  0  0  0  0  0  0  0  0  0  0
   52.6090  -32.0522    0.6464 C   0  0  0  0  0  0  0  0  0  0  0  0
   51.5040  -32.8835    0.8356 C   0  0  0  0  0  0  0  0  0  0  0  0
   50.2897  -32.2964    1.1775 C   0  0  0  0  0  0  0  0  0  0  0  0
   50.2015  -30.9322    1.3468 C   0  0  0  0  0  0  0  0  0  0  0  0
   51.3029  -30.1210    1.1383 C   0  0  0  0  0  0  0  0  0  0  0  0
   52.5224  -30.6708    0.7808 C   0  0  0  0  0  0  0  0  0  0  0  0
   48.9749  -30.3920    1.6587 C   0  0  0  0  0  0  0  0  0  0  0  0
   48.2042  -30.7185    0.4321 N   0  0  0  0  0  0  0  0  0  0  0  0
   48.4820  -30.1079   -0.8048 C   0  0  0  0  0  0  0  0  0  0  0  0
   49.4689  -29.3808   -0.8852 O   0  0  0  0  0  0  0  0  0  0  0  0
   47.7748  -30.4917   -1.9332 C   0  0  0  0  0  0  0  0  0  0  0  0
   47.6937  -29.3157   -2.9040 C   0  0  0  0  0  0  0  0  0  0  0  0
   48.7665  -29.3957   -3.9215 C   0  0  0  0  0  0  0  0  0  0  0  0
   48.3899  -30.2896   -4.9254 C   0  0  0  0  0  0  0  0  0  0  0  0
   49.1731  -31.1105   -5.2783 O   0  0  0  0  0  0  0  0  0  0  0  0
   47.0379  -30.4576   -5.3028 N   0  0  0  0  0  0  0  0  0  0  0  0
   46.7199  -31.4094   -6.3928 C   0  0  0  0  0  0  0  0  0  0  0  0
   46.3560  -32.8382   -5.9973 C   0  0  0  0  0  0  0  0  0  0  0  0
   46.9157  -33.7301   -7.1201 C   0  0  0  0  0  0  0  0  0  0  0  0
   46.2277  -35.0564   -7.1989 C   0  0  0  0  0  0  0  0  0  0  0  0
   47.0896  -36.0341   -8.0209 C   0  0  2  0  0  0  0  0  0  0  0  0
   46.4161  -37.2872   -8.1359 C   0  0  0  0  0  0  0  0  0  0  0  0
   47.0891  -38.3024   -8.0919 O   0  0  0  0  0  0  0  0  0  0  0  0
   45.2126  -37.2808   -8.6846 N   0  0  0  0  0  0  0  0  0  0  0  0
   44.2601  -38.4240   -8.4983 C   0  0  0  0  0  0  0  0  0  0  0  0
   43.9261  -38.5591   -7.1389 C   0  0  0  0  0  0  0  0  0  0  0  0
   43.8372  -37.4089   -6.2990 C   0  0  0  0  0  0  0  0  0  0  0  0
   43.7921  -37.4974   -4.9442 C   0  0  0  0  0  0  0  0  0  0  0  0
   43.7160  -38.7492   -4.2753 C   0  0  0  0  0  0  0  0  0  0  0  0
   43.5693  -38.8422   -2.8842 C   0  0  0  0  0  0  0  0  0  0  0  0
   43.5808  -40.0382   -2.2960 N   0  0  0  0  0  0  0  0  0  0  0  0
   43.2151  -37.7624   -2.1740 N   0  0  0  0  0  0  0  0  0  0  0  0
   43.7795  -37.7882   -1.1465 H   0  0  0  0  0  0  0  0  0  0  0  0
   43.8036  -39.9089   -5.0975 C   0  0  0  0  0  0  0  0  0  0  0  0
   43.8866  -39.7925   -6.4729 C   0  0  0  0  0  0  0  0  0  0  0  0
   48.3865  -36.3087   -7.3479 N   0  0  0  0  0  0  0  0  0  0  0  0
   49.4081  -37.1253   -7.8777 C   0  0  0  0  0  0  0  0  0  0  0  0
   49.2199  -37.7286   -8.9427 O   0  0  0  0  0  0  0  0  0  0  0  0
   50.5529  -37.4008   -7.0961 C   0  0  1  0  0  0  0  0  0  0  0  0
   50.3282  -38.6611   -6.1993 C   0  0  2  0  0  0  0  0  0  0  0  0
   50.9020  -38.4395   -4.8065 C   0  0  0  0  0  0  0  0  0  0  0  0
   51.0609  -39.8904   -6.7946 C   0  0  0  0  0  0  0  0  0  0  0  0
   48.8240  -39.0128   -6.0782 C   0  0  0  0  0  0  0  0  0  0  0  0
   51.7653  -37.6366   -7.9411 N   0  0  0  0  0  0  0  0  0  0  0  0
   52.9980  -36.9890   -7.7306 C   0  0  0  0  0  0  0  0  0  0  0  0
   52.9211  -35.9379   -7.1107 O   0  0  0  0  0  0  0  0  0  0  0  0
   54.1070  -37.2956   -8.5077 C   0  0  1  0  0  0  0  0  0  0  0  0
   54.2147  -36.3948   -9.7476 C   0  0  0  0  0  0  0  0  0  0  0  0
   53.5677  -35.0215   -9.5037 C   0  0  0  0  0  0  0  0  0  0  0  0
   52.1029  -35.1751   -9.1150 C   0  0  0  0  0  0  0  0  0  0  0  0
   51.2409  -34.3129  -10.0577 N   0  0  0  0  0  0  0  0  0  0  0  0
   49.8748  -34.3892  -10.0594 C   0  0  0  0  0  0  0  0  0  0  0  0
   49.2120  -34.3695   -8.8880 N   0  0  0  0  0  0  0  0  0  0  0  0
   49.1854  -34.3910  -11.1901 N   0  0  0  0  0  0  0  0  0  0  0  0
   50.0824  -34.3589  -12.0909 H   0  0  0  0  0  0  0  0  0  0  0  0
   55.3161  -37.1564   -7.6503 N   0  0  0  0  0  0  0  0  0  0  0  0
   56.3065  -38.1409   -7.6312 C   0  0  0  0  0  0  0  0  0  0  0  0
   56.0213  -39.2600   -8.0954 O   0  0  0  0  0  0  0  0  0  0  0  0
 13 14  1  6
 11 13  1  0
 13 15  1  0
 11 12  2  0
 10 11  1  0
 15 16  1  0
 16 17  1  0
 17 18  1  0
 18 19  1  0
 19 20  1  0
  9 10  1  0
 79  9  1  0
  9  8  1  1
 79 80  2  0
 78 79  1  0
  8  7  1  0
  7  6  1  0
  6  5  1  0
  5  3  1  0
  3  4  1  0
  3  2  2  0
 69 78  1  0
 67 69  1  0
 69 70  1  1
 67 68  2  0
 66 67  1  0
 70 71  1  0
 71 72  1  0
 72 73  1  0
 73 74  1  0
 74 75  1  0
 74 76  2  0
 61 66  1  1
 61 62  1  0
 59 61  1  0
 62 63  1  6
 62 64  1  0
 62 65  1  0
 59 60  2  0
 58 59  1  0
 43 58  1  0
 43 44  1  6
 42 43  1  0
 44 45  2  0
 44 46  1  0
 41 42  1  0
 40 41  1  0
 39 40  1  0
 38 39  1  0
 36 38  1  0
 46 47  1  0
 47 48  1  0
 48 49  4  0
 48 57  4  0
 49 50  4  0
 50 51  4  0
 51 52  1  0
 56 51  4  0
 52 53  1  0
 52 54  2  0
 57 56  4  0
 35 36  1  0
 36 37  2  0
 34 35  1  0
 33 34  1  0
 31 33  1  0
 31 32  2  0
 30 31  1  0
 29 30  1  0
 25 24  4  0
 24 23  4  0
 26 25  4  0
 26 27  4  0
 26 29  1  0
 27 28  4  0
 28 23  4  0
 20 22  1  0
 22 23  1  0
 20 21  2  0
  2  1  1  0
 76 77  1  0
 54 55  1  0
M  CHG  1  14   1
M  END
$$$$
