
     RDKit          3D

 76 77  0  0  0  0  0  0  0  0999 V2000
   51.6585  -32.7015    0.3687 H   0  0  0  0  0  0  0  0  0  0  0  0
   52.3206  -31.8320    0.8672 N   0  0  0  0  0  0  0  0  0  0  0  0
   53.6007  -32.1910    0.7563 C   0  0  0  0  0  0  0  0  0  0  0  0
   54.3631  -32.2536    1.9174 N   0  0  0  0  0  0  0  0  0  0  0  0
   54.1597  -32.5250   -0.4022 N   0  0  0  0  0  0  0  0  0  0  0  0
   54.6931  -31.5627   -1.3668 C   0  0  0  0  0  0  0  0  0  0  0  0
   53.6589  -31.2333   -2.4263 C   0  0  0  0  0  0  0  0  0  0  0  0
   54.2223  -31.5596   -3.7861 C   0  0  0  0  0  0  0  0  0  0  0  0
   53.5171  -32.8137   -4.3571 C   0  0  1  0  0  0  0  0  0  0  0  0
   54.3244  -34.0216   -4.1087 N   0  0  0  0  0  0  0  0  0  0  0  0
   54.8007  -34.3254   -2.8081 C   0  0  0  0  0  0  0  0  0  0  0  0
   54.4433  -33.6502   -1.8518 O   0  0  0  0  0  0  0  0  0  0  0  0
   55.5099  -35.5075   -2.6441 C   0  0  0  0  0  0  0  0  0  0  0  0
   54.8767  -36.2713   -1.4655 C   0  0  0  0  0  0  0  0  0  0  0  0
   53.3853  -36.5553   -1.7013 C   0  0  0  0  0  0  0  0  0  0  0  0
   53.2297  -37.3912   -2.8394 C   0  0  0  0  0  0  0  0  0  0  0  0
   53.5242  -38.5985   -2.7637 O   0  0  0  0  0  0  0  0  0  0  0  0
   52.4199  -36.9584   -3.9198 N   0  0  0  0  0  0  0  0  0  0  0  0
   52.2993  -37.8972   -5.0681 C   0  0  0  0  0  0  0  0  0  0  0  0
   51.7355  -37.2467   -6.3271 C   0  0  0  0  0  0  0  0  0  0  0  0
   50.2195  -37.1924   -6.2156 C   0  0  0  0  0  0  0  0  0  0  0  0
   49.5678  -37.2312   -7.5839 C   0  0  0  0  0  0  0  0  0  0  0  0
   49.4043  -35.8366   -8.1995 C   0  0  1  0  0  0  0  0  0  0  0  0
   48.7066  -36.0006   -9.3887 C   0  0  0  0  0  0  0  0  0  0  0  0
   49.1834  -36.7410  -10.2467 O   0  0  0  0  0  0  0  0  0  0  0  0
   47.3911  -35.6892   -9.3776 N   0  0  0  0  0  0  0  0  0  0  0  0
   46.4414  -36.1349  -10.4378 C   0  0  2  0  0  0  0  0  0  0  0  0
   45.6848  -34.9243  -11.0384 C   0  0  0  0  0  0  0  0  0  0  0  0
   46.4745  -34.1223  -12.0432 C   0  0  0  0  0  0  0  0  0  0  0  0
   45.8594  -34.4069  -13.4102 C   0  0  0  0  0  0  0  0  0  0  0  0
   46.8950  -34.7018  -14.4254 N   0  0  0  0  0  0  0  0  0  0  0  0
   48.1047  -34.1517  -14.3728 C   0  0  0  0  0  0  0  0  0  0  0  0
   49.2028  -34.8975  -14.2074 N   0  0  0  0  0  0  0  0  0  0  0  0
   48.2719  -32.8108  -14.7014 N   0  0  0  0  0  0  0  0  0  0  0  0
   47.9989  -32.1802  -13.6992 H   0  0  0  0  0  0  0  0  0  0  0  0
   45.5033  -37.1196   -9.8093 C   0  0  0  0  0  0  0  0  0  0  0  0
   45.7580  -38.3323   -9.9274 O   0  0  0  0  0  0  0  0  0  0  0  0
   44.5385  -36.6562   -8.9545 N   0  0  0  0  0  0  0  0  0  0  0  0
   43.3312  -37.4715   -8.6326 C   0  0  0  0  0  0  0  0  0  0  0  0
   43.4071  -37.8172   -7.2892 C   0  0  0  0  0  0  0  0  0  0  0  0
   44.0600  -39.0054   -6.8271 C   0  0  0  0  0  0  0  0  0  0  0  0
   44.0821  -39.3758   -5.4824 C   0  0  0  0  0  0  0  0  0  0  0  0
   43.4807  -38.5713   -4.4907 C   0  0  0  0  0  0  0  0  0  0  0  0
   43.6534  -38.7774   -3.1323 C   0  0  0  0  0  0  0  0  0  0  0  0
   43.7473  -40.0437   -2.6429 N   0  0  0  0  0  0  0  0  0  0  0  0
   44.0252  -37.7617   -2.3433 N   0  0  0  0  0  0  0  0  0  0  0  0
   45.2042  -37.6669   -2.4589 H   0  0  0  0  0  0  0  0  0  0  0  0
   42.7236  -37.5228   -4.9235 C   0  0  0  0  0  0  0  0  0  0  0  0
   42.7095  -37.1103   -6.3091 C   0  0  0  0  0  0  0  0  0  0  0  0
   48.6550  -35.0058   -7.2221 N   0  0  0  0  0  0  0  0  0  0  0  0
   49.1152  -33.7542   -6.7853 C   0  0  0  0  0  0  0  0  0  0  0  0
   50.2781  -33.4323   -7.1064 O   0  0  0  0  0  0  0  0  0  0  0  0
   48.3895  -33.0046   -5.8325 C   0  0  1  0  0  0  0  0  0  0  0  0
   47.4509  -33.9549   -5.0486 C   0  0  0  0  0  0  0  0  0  0  0  0
   46.8832  -33.2292   -3.7958 C   0  0  0  0  0  0  0  0  0  0  0  0
   47.4992  -33.8093   -2.5077 C   0  0  0  0  0  0  0  0  0  0  0  0
   48.9386  -33.7380   -2.5037 N   0  0  0  0  0  0  0  0  0  0  0  0
   49.7387  -34.2354   -1.5312 C   0  0  0  0  0  0  0  0  0  0  0  0
   51.0802  -34.1112   -1.6445 N   0  0  0  0  0  0  0  0  0  0  0  0
   49.2052  -35.0883   -0.6118 N   0  0  0  0  0  0  0  0  0  0  0  0
   48.0007  -35.0575   -0.8142 H   0  0  0  0  0  0  0  0  0  0  0  0
   49.3832  -32.3392   -4.9139 N   0  0  0  0  0  0  0  0  0  0  0  0
   49.2830  -32.4116   -3.5160 C   0  0  0  0  0  0  0  0  0  0  0  0
   48.2017  -32.8106   -3.0482 O   0  0  0  0  0  0  0  0  0  0  0  0
   50.2393  -31.7972   -2.6897 C   0  0  2  0  0  0  0  0  0  0  0  0
   49.8552  -30.3285   -2.3896 C   0  0  0  0  0  0  0  0  0  0  0  0
   50.0632  -29.9963   -0.8549 C   0  0  0  0  0  0  0  0  0  0  0  0
   49.6291  -31.1764   -0.0320 C   0  0  0  0  0  0  0  0  0  0  0  0
   50.6761  -31.8469    0.7197 N   0  0  0  0  0  0  0  0  0  0  0  0
   50.6546  -33.1044    1.2310 C   0  0  0  0  0  0  0  0  0  0  0  0
   51.7797  -33.7845    1.4145 N   0  0  0  0  0  0  0  0  0  0  0  0
   49.4556  -33.6045    1.6391 N   0  0  0  0  0  0  0  0  0  0  0  0
   48.6689  -33.4114    0.6900 H   0  0  0  0  0  0  0  0  0  0  0  0
   51.5701  -31.7774   -3.3659 N   0  0  0  0  0  0  0  0  0  0  0  0
   52.2727  -32.9389   -3.7164 C   0  0  0  0  0  0  0  0  0  0  0  0
   51.7146  -34.0979   -3.5756 O   0  0  0  0  0  0  0  0  0  0  0  0
 10  9  1  0
 10 11  1  0
  9 75  1  0
  9  8  1  6
 75 76  2  0
 75 74  1  0
  8  7  1  0
  7  6  1  0
  6  5  1  0
  5  3  1  0
  3  2  2  0
  3  4  1  0
 74 65  1  0
 65 63  1  0
 65 66  1  6
 63 64  2  0
 63 62  1  0
 66 67  1  0
 67 68  1  0
 68 69  1  0
 69 70  1  0
 70 71  1  0
 70 72  2  0
 62 53  1  0
 53 51  1  0
 53 54  1  6
 51 52  2  0
 51 50  1  0
 54 55  1  0
 55 56  1  0
 56 57  1  0
 57 58  1  0
 58 59  1  0
 58 60  2  0
 50 23  1  0
 23 24  1  6
 23 22  1  0
 24 25  2  0
 24 26  1  0
 22 21  1  0
 21 20  1  0
 20 19  1  0
 19 18  1  0
 18 16  1  0
 26 27  1  0
 27 36  1  0
 27 28  1  6
 36 37  2  0
 36 38  1  0
 28 29  1  0
 29 30  1  0
 30 31  1  0
 31 32  1  0
 32 33  1  0
 32 34  2  0
 38 39  1  0
 39 40  1  0
 40 41  4  0
 40 49  4  0
 41 42  4  0
 42 43  4  0
 43 44  1  0
 43 48  4  0
 44 45  1  0
 44 46  2  0
 48 49  4  0
 11 13  1  0
 11 12  2  0
 13 14  1  0
 14 15  1  0
 15 16  1  0
 16 17  2  0
  2  1  1  0
 72 73  1  0
 60 61  1  0
 34 35  1  0
 46 47  1  0
M  END
$$$$
