
     RDKit          3D

 47 47  0  0  0  0  0  0  0  0999 V2000
  -23.0140    8.9120    4.3640 C   0  0  0  0  0  0  0  0  0  0  0  0
  -21.7460    8.9070    3.5020 C   0  0  2  0  0  0  0  0  0  0  0  0
  -21.7350   10.0470    2.5920 N   0  0  0  0  0  0  0  0  0  0  0  0
  -21.6410    7.6030    2.7200 C   0  0  0  0  0  0  0  0  0  0  0  0
  -22.2400    7.4620    1.6550 O   0  0  0  0  0  0  0  0  0  0  0  0
  -20.8660    6.6580    3.2430 N   0  0  0  0  0  0  0  0  0  0  0  0
  -20.7430    5.3570    2.6120 C   0  0  1  0  0  0  0  0  0  0  0  0
  -19.4360    4.6810    3.0210 C   0  0  0  0  0  0  0  0  0  0  0  0
  -21.9160    4.4670    2.9960 C   0  0  0  0  0  0  0  0  0  0  0  0
  -22.5240    4.6280    4.0580 O   0  0  0  0  0  0  0  0  0  0  0  0
  -22.2290    3.5180    2.1200 N   0  0  0  0  0  0  0  0  0  0  0  0
  -23.2480    2.5150    2.3910 C   0  0  1  0  0  0  0  0  0  0  0  0
  -24.4350    2.6460    1.4350 C   0  0  0  0  0  0  0  0  0  0  0  0
  -24.0420    2.4370   -0.0090 C   0  0  0  0  0  0  0  0  0  0  0  0
  -24.3160    1.3400   -0.5290 O   0  0  0  0  0  0  0  0  0  0  0  0
  -23.4270    3.3500   -0.6120 O   0  0  0  0  0  0  0  0  0  0  0  0
  -22.6410    1.1200    2.2830 C   0  0  0  0  0  0  0  0  0  0  0  0
  -21.5910    0.9210    1.6650 O   0  0  0  0  0  0  0  0  0  0  0  0
  -23.3250    0.1560    2.8940 N   0  0  0  0  0  0  0  0  0  0  0  0
  -22.9160   -1.2400    2.9070 C   0  0  2  0  0  0  0  0  0  0  0  0
  -24.0400   -2.0950    2.3420 C   0  0  0  0  0  0  0  0  0  0  0  0
  -25.2210   -1.7640    2.4810 O   0  0  0  0  0  0  0  0  0  0  0  0
  -23.6690   -3.2020    1.7010 N   0  0  0  0  0  0  0  0  0  0  0  0
  -24.6490   -4.1020    1.1050 C   0  0  2  0  0  0  0  0  0  0  0  0
  -24.8680   -5.3740    1.9140 C   0  0  0  0  0  0  0  0  0  0  0  0
  -25.5920   -6.2600    1.4570 O   0  0  0  0  0  0  0  0  0  0  0  0
  -24.2640   -5.4910    3.0960 N   0  0  0  0  0  0  0  0  0  0  0  0
  -24.3440   -6.7000    3.9000 C   0  0  2  0  0  0  0  0  0  0  0  0
  -24.8010   -6.3610    5.3150 C   0  0  0  0  0  0  0  0  0  0  0  0
  -24.3120   -5.3940    5.9100 O   0  0  0  0  0  0  0  0  0  0  0  0
  -25.7420   -7.1360    5.8800 N   0  0  0  0  0  0  0  0  0  0  0  0
  -26.4020   -8.3020    5.2660 C   0  0  0  0  0  0  0  0  0  0  0  0
  -27.1360   -8.9280    6.4230 C   0  0  0  0  0  0  0  0  0  0  0  0
  -27.4530   -7.8080    7.3470 C   0  0  0  0  0  0  0  0  0  0  0  0
  -26.2460   -6.8710    7.2340 C   0  0  1  0  0  0  0  0  0  0  0  0
  -25.2180   -7.1760    8.3210 C   0  0  0  0  0  0  0  0  0  0  0  0
  -25.1540   -6.4420    9.3090 O   0  0  0  0  0  0  0  0  0  0  0  0
  -24.4740   -8.1500    8.1870 O   0  0  0  0  0  0  0  0  0  0  0  0
  -22.9820   -7.4130    3.9460 C   0  0  1  0  0  0  0  0  0  0  0  0
  -22.6650   -8.0420    2.6010 C   0  0  0  0  0  0  0  0  0  0  0  0
  -21.9520   -6.4690    4.2690 O   0  0  0  0  0  0  0  0  0  0  0  0
  -24.2390   -4.4720   -0.3260 C   0  0  1  0  0  0  0  0  0  0  0  0
  -23.8590   -3.2290   -1.1090 C   0  0  0  0  0  0  0  0  0  0  0  0
  -23.1180   -5.3670   -0.2900 O   0  0  0  0  0  0  0  0  0  0  0  0
  -22.5700   -1.7070    4.3280 C   0  0  1  0  0  0  0  0  0  0  0  0
  -23.8040   -1.6260    5.2490 C   0  0  0  0  0  0  0  0  0  0  0  0
  -22.1100   -3.0620    4.2930 O   0  0  0  0  0  0  0  0  0  0  0  0
  3  2  1  0
  2  4  1  0
  2  1  1  6
  4  5  2  0
  4  6  1  0
  6  7  1  0
  7  9  1  0
  7  8  1  1
  9 10  2  0
  9 11  1  0
 11 12  1  0
 12 17  1  0
 12 13  1  6
 17 18  2  0
 17 19  1  0
 13 14  1  0
 14 16  1  0
 14 15  2  0
 20 19  1  1
 20 21  1  0
 20 45  1  0
 21 22  2  0
 21 23  1  0
 45 47  1  0
 45 46  1  1
 24 23  1  1
 24 25  1  0
 24 42  1  0
 25 26  2  0
 25 27  1  0
 42 44  1  0
 42 43  1  6
 28 27  1  6
 28 29  1  0
 28 39  1  0
 29 30  2  0
 29 31  1  0
 39 41  1  0
 39 40  1  6
 31 35  1  0
 31 32  1  0
 35 36  1  1
 35 34  1  0
 36 37  2  0
 36 38  1  0
 34 33  1  0
 33 32  1  0
M  CHG  1   3   1
M  END
$$$$
