
     RDKit          3D

 48 48  0  0  0  0  0  0  0  0999 V2000
    6.4233    7.7805   26.7483 C   0  0  0  0  0  0  0  0  0  0  0  0
    6.3984    6.2525   26.5640 C   0  0  0  0  0  0  0  0  0  0  0  0
    5.9352    5.7655   25.2216 C   0  0  1  0  0  0  0  0  0  0  0  0
    5.7765    6.8667   24.2567 N   0  0  0  0  0  0  0  0  0  0  0  0
    6.9054    4.7056   24.6972 C   0  0  0  0  0  0  0  0  0  0  0  0
    6.8678    3.5437   25.1192 O   0  0  0  0  0  0  0  0  0  0  0  0
    7.4493    4.9552   23.5048 N   0  0  0  0  0  0  0  0  0  0  0  0
    8.8702    5.3875   23.3765 C   0  0  2  0  0  0  0  0  0  0  0  0
    9.1510    6.1634   22.1028 C   0  0  0  0  0  0  0  0  0  0  0  0
    9.7226    4.1459   23.3222 C   0  0  0  0  0  0  0  0  0  0  0  0
    9.1862    3.0067   23.2607 O   0  0  0  0  0  0  0  0  0  0  0  0
   11.0425    4.3636   23.1061 N   0  0  0  0  0  0  0  0  0  0  0  0
   11.9906    3.2983   23.1471 C   0  0  1  0  0  0  0  0  0  0  0  0
   11.5192    2.0854   23.9613 C   0  0  0  0  0  0  0  0  0  0  0  0
   12.6193    1.1368   24.3408 C   0  0  0  0  0  0  0  0  0  0  0  0
   12.7736    1.0011   25.5630 O   0  0  0  0  0  0  0  0  0  0  0  0
   13.4601    0.8026   23.5029 O   0  0  0  0  0  0  0  0  0  0  0  0
   12.3610    2.8428   21.7442 C   0  0  0  0  0  0  0  0  0  0  0  0
   11.9732    1.7731   21.2719 O   0  0  0  0  0  0  0  0  0  0  0  0
   13.3549    3.5556   21.1719 N   0  0  0  0  0  0  0  0  0  0  0  0
   14.6219    2.9767   20.7922 C   0  0  2  0  0  0  0  0  0  0  0  0
   14.5841    2.5831   19.3171 C   0  0  0  0  0  0  0  0  0  0  0  0
   13.8909    1.6061   18.9796 O   0  0  0  0  0  0  0  0  0  0  0  0
   15.5349    3.1310   18.5646 N   0  0  0  0  0  0  0  0  0  0  0  0
   17.0016    3.0131   18.8314 C   0  0  2  0  0  0  0  0  0  0  0  0
   17.7544    2.7083   17.5670 C   0  0  0  0  0  0  0  0  0  0  0  0
   17.2285    2.0365   16.6793 O   0  0  0  0  0  0  0  0  0  0  0  0
   19.0709    3.0650   17.5525 N   0  0  0  0  0  0  0  0  0  0  0  0
   20.1149    2.0941   17.2746 C   0  0  2  0  0  0  0  0  0  0  0  0
   21.4683    2.5756   17.7939 C   0  0  0  0  0  0  0  0  0  0  0  0
   21.7173    2.4420   19.0204 O   0  0  0  0  0  0  0  0  0  0  0  0
   22.4907    2.5483   16.9400 N   0  0  0  0  0  0  0  0  0  0  0  0
   22.9649    1.4565   16.0901 C   0  0  0  0  0  0  0  0  0  0  0  0
   23.6160    2.0703   14.9417 C   0  0  0  0  0  0  0  0  0  0  0  0
   23.0244    3.4518   14.8234 C   0  0  0  0  0  0  0  0  0  0  0  0
   22.8408    3.8667   16.2528 C   0  0  2  0  0  0  0  0  0  0  0  0
   24.0988    4.4587   16.9050 C   0  0  0  0  0  0  0  0  0  0  0  0
   24.3137    4.4096   18.1048 O   0  0  0  0  0  0  0  0  0  0  0  0
   25.0924    4.6973   16.1567 O   0  0  0  0  0  0  0  0  0  0  0  0
   20.1964    1.8510   15.7673 C   0  0  2  0  0  0  0  0  0  0  0  0
   20.4819    3.1040   14.9568 C   0  0  0  0  0  0  0  0  0  0  0  0
   18.9628    1.2905   15.2774 O   0  0  0  0  0  0  0  0  0  0  0  0
   17.2305    1.8420   19.8250 C   0  0  2  0  0  0  0  0  0  0  0  0
   18.7116    1.6535   20.1140 C   0  0  0  0  0  0  0  0  0  0  0  0
   16.7209    0.6194   19.2877 O   0  0  0  0  0  0  0  0  0  0  0  0
   14.9429    1.7266   21.6558 C   0  0  1  0  0  0  0  0  0  0  0  0
   15.6021    0.6504   20.7529 C   0  0  0  0  0  0  0  0  0  0  0  0
   15.9163    2.1372   22.6575 O   0  0  0  0  0  0  0  0  0  0  0  0
  3  4  1  1
  3  5  1  0
  3  2  1  0
  5  6  2  0
  5  7  1  0
  2  1  1  0
  7  8  1  0
  8 10  1  0
  8  9  1  1
 10 11  2  0
 10 12  1  0
 12 13  1  0
 13 18  1  0
 13 14  1  1
 18 19  2  0
 18 20  1  0
 14 15  1  0
 15 16  2  0
 15 17  1  0
 21 20  1  1
 21 22  1  0
 21 46  1  0
 22 23  2  0
 22 24  1  0
 46 48  1  0
 46 47  1  6
 25 24  1  6
 25 26  1  0
 25 43  1  0
 26 27  2  0
 26 28  1  0
 43 45  1  0
 43 44  1  1
 29 28  1  6
 29 30  1  0
 29 40  1  0
 30 31  2  0
 30 32  1  0
 40 42  1  0
 40 41  1  1
 32 36  1  0
 32 33  1  0
 36 37  1  6
 36 35  1  0
 37 39  1  0
 37 38  2  0
 35 34  1  0
 34 33  1  0
M  CHG  1   4   1
M  END
$$$$
