
     RDKit          3D

 48 48  0  0  0  0  0  0  0  0999 V2000
    9.6130    5.7840   25.8500 C   0  0  0  0  0  0  0  0  0  0  0  0
    8.3890    4.9270   25.8620 C   0  0  0  0  0  0  0  0  0  0  0  0
    7.5740    4.9420   24.5740 C   0  0  2  0  0  0  0  0  0  0  0  0
    6.2760    4.3170   24.8050 N   0  0  0  0  0  0  0  0  0  0  0  0
    8.3370    4.2200   23.4490 C   0  0  0  0  0  0  0  0  0  0  0  0
    8.6180    3.0190   23.5560 O   0  0  0  0  0  0  0  0  0  0  0  0
    8.6440    4.9530   22.3760 N   0  0  0  0  0  0  0  0  0  0  0  0
    9.4240    4.4110   21.2710 C   0  0  1  0  0  0  0  0  0  0  0  0
    9.4370    5.3710   20.0770 C   0  0  0  0  0  0  0  0  0  0  0  0
   10.8500    4.1790   21.7230 C   0  0  0  0  0  0  0  0  0  0  0  0
   11.3310    4.8270   22.6560 O   0  0  0  0  0  0  0  0  0  0  0  0
   11.5270    3.2430   21.0560 N   0  0  0  0  0  0  0  0  0  0  0  0
   12.9380    2.9890   21.3000 C   0  0  1  0  0  0  0  0  0  0  0  0
   13.1580    1.6700   22.0490 C   0  0  0  0  0  0  0  0  0  0  0  0
   12.7880    0.4520   21.2110 C   0  0  0  0  0  0  0  0  0  0  0  0
   11.5770    0.1390   21.1720 O   0  0  0  0  0  0  0  0  0  0  0  0
   13.6990   -0.1800   20.6080 O   0  0  0  0  0  0  0  0  0  0  0  0
   13.7140    2.9530   19.9900 C   0  0  0  0  0  0  0  0  0  0  0  0
   13.1480    2.8530   18.9000 O   0  0  0  0  0  0  0  0  0  0  0  0
   15.0370    3.0380   20.1160 N   0  0  0  0  0  0  0  0  0  0  0  0
   15.9520    2.9870   18.9870 C   0  0  2  0  0  0  0  0  0  0  0  0
   16.9990    1.9140   19.2360 C   0  0  0  0  0  0  0  0  0  0  0  0
   17.2830    1.5600   20.3850 O   0  0  0  0  0  0  0  0  0  0  0  0
   17.5350    1.3730   18.1450 N   0  0  0  0  0  0  0  0  0  0  0  0
   18.5940    0.3730   18.1820 C   0  0  2  0  0  0  0  0  0  0  0  0
   19.9290    0.9950   17.7790 C   0  0  0  0  0  0  0  0  0  0  0  0
   20.6850    0.4090   17.0020 O   0  0  0  0  0  0  0  0  0  0  0  0
   20.2350    2.1990   18.3040 N   0  0  0  0  0  0  0  0  0  0  0  0
   21.3190    3.0350   17.7790 C   0  0  2  0  0  0  0  0  0  0  0  0
   21.6990    4.1500   18.7510 C   0  0  0  0  0  0  0  0  0  0  0  0
   20.8490    4.6310   19.5070 O   0  0  0  0  0  0  0  0  0  0  0  0
   22.9710    4.5870   18.7780 N   0  0  0  0  0  0  0  0  0  0  0  0
   24.1830    3.8460   18.3890 C   0  0  0  0  0  0  0  0  0  0  0  0
   25.2470    4.8990   18.4420 C   0  0  0  0  0  0  0  0  0  0  0  0
   24.8150    5.8370   19.5230 C   0  0  0  0  0  0  0  0  0  0  0  0
   23.2900    5.8730   19.4090 C   0  0  1  0  0  0  0  0  0  0  0  0
   22.8340    7.0610   18.5500 C   0  0  0  0  0  0  0  0  0  0  0  0
   22.9250    7.0230   17.3200 O   0  0  0  0  0  0  0  0  0  0  0  0
   22.3670    8.0770   19.0730 O   0  0  0  0  0  0  0  0  0  0  0  0
   20.8840    3.6480   16.4410 C   0  0  1  0  0  0  0  0  0  0  0  0
   21.8430    4.7120   15.9230 C   0  0  0  0  0  0  0  0  0  0  0  0
   20.7400    2.6190   15.4520 O   0  0  0  0  0  0  0  0  0  0  0  0
   18.2830   -0.8120   17.2610 C   0  0  1  0  0  0  0  0  0  0  0  0
   16.8090   -1.2190   17.3190 C   0  0  0  0  0  0  0  0  0  0  0  0
   18.6130   -0.4650   15.9110 O   0  0  0  0  0  0  0  0  0  0  0  0
   16.6430    4.3270   18.7390 C   0  0  1  0  0  0  0  0  0  0  0  0
   17.3410    4.8140   20.0060 C   0  0  0  0  0  0  0  0  0  0  0  0
   17.5980    4.1740   17.6840 O   0  0  0  0  0  0  0  0  0  0  0  0
  3  4  1  1
  3  5  1  0
  3  2  1  0
  5  6  2  0
  5  7  1  0
  2  1  1  0
  7  8  1  0
  8 10  1  0
  8  9  1  6
 10 11  2  0
 10 12  1  0
 12 13  1  0
 13 18  1  0
 13 14  1  6
 18 19  2  0
 18 20  1  0
 14 15  1  0
 15 16  2  0
 15 17  1  0
 21 20  1  1
 21 22  1  0
 21 46  1  0
 22 23  2  0
 22 24  1  0
 46 48  1  0
 46 47  1  1
 25 24  1  6
 25 26  1  0
 25 43  1  0
 26 27  2  0
 26 28  1  0
 43 45  1  0
 43 44  1  6
 29 28  1  1
 29 30  1  0
 29 40  1  0
 30 31  2  0
 30 32  1  0
 40 42  1  0
 40 41  1  6
 32 36  1  0
 32 33  1  0
 36 37  1  6
 36 35  1  0
 37 39  1  0
 37 38  2  0
 35 34  1  0
 34 33  1  0
M  CHG  1   4   1
M  END
$$$$
