
     RDKit          3D

 18 19  0  0  0  0  0  0  0  0999 V2000
  -16.0310   -0.6490  -26.1010 C   0  0  0  0  0  0  0  0  0  0  0  0
  -15.7350   -2.1630  -26.0640 C   0  0  0  0  0  0  0  0  0  0  0  0
  -16.7010   -3.0150  -26.9210 C   0  0  1  0  0  0  0  0  0  0  0  0
  -18.1090   -2.6570  -26.4070 C   0  0  0  0  0  0  0  0  0  0  0  0
  -16.6540   -2.7580  -28.3280 C   0  0  0  0  0  0  0  0  0  0  0  0
  -15.5670   -2.1500  -28.9770 C   0  0  0  0  0  0  0  0  0  0  0  0
  -15.5630   -1.9220  -30.3550 C   0  0  0  0  0  0  0  0  0  0  0  0
  -16.6540   -2.3150  -31.1210 C   0  0  0  0  0  0  0  0  0  0  0  0
  -16.6640   -2.1110  -32.4690 O   0  0  0  0  0  0  0  0  0  0  0  0
  -17.7340   -2.9260  -30.4950 C   0  0  0  0  0  0  0  0  0  0  0  0
  -17.7380   -3.1500  -29.1180 C   0  0  0  0  0  0  0  0  0  0  0  0
  -16.4240   -4.3690  -26.6190 C   0  0  0  0  0  0  0  0  0  0  0  0
  -17.1790   -5.1070  -25.6940 C   0  0  0  0  0  0  0  0  0  0  0  0
  -16.8760   -6.4340  -25.3830 C   0  0  0  0  0  0  0  0  0  0  0  0
  -15.7980   -7.0480  -26.0240 C   0  0  0  0  0  0  0  0  0  0  0  0
  -15.4630   -8.3500  -25.7450 O   0  0  0  0  0  0  0  0  0  0  0  0
  -15.0400   -6.3140  -26.9410 C   0  0  0  0  0  0  0  0  0  0  0  0
  -15.3510   -4.9970  -27.2440 C   0  0  0  0  0  0  0  0  0  0  0  0
  2  1  1  0
  3  4  1  1
  6  7  2  0
  7  8  1  0
 11 10  1  0
 10  8  2  0
 13 14  2  0
 14 15  1  0
 18 17  1  0
 17 15  2  0
  5  6  1  0
  5 11  2  0
 12 13  1  0
 12 18  2  0
  3  2  1  0
  8  9  1  0
 15 16  1  0
  3  5  1  0
 12  3  1  0
M  END
$$$$
