
     RDKit          3D

 17 18  0  0  0  0  0  0  0  0999 V2000
   15.9709    1.4370  -28.1301 C   0  0  0  0  0  0  0  0  0  0  0  0
   15.7167    2.9377  -27.7525 C   0  0  2  0  0  0  0  0  0  0  0  0
   15.6095    2.9902  -26.2395 C   0  0  0  0  0  0  0  0  0  0  0  0
   14.4296    3.3836  -28.3744 C   0  0  0  0  0  0  0  0  0  0  0  0
   14.3476    3.3951  -29.7583 C   0  0  0  0  0  0  0  0  0  0  0  0
   13.8455    4.5337  -30.3983 C   0  0  0  0  0  0  0  0  0  0  0  0
   13.3554    5.5867  -29.6842 C   0  0  0  0  0  0  0  0  0  0  0  0
   13.3297    6.8651  -30.1922 O   0  0  0  0  0  0  0  0  0  0  0  0
   13.1890    5.4745  -28.2847 C   0  0  0  0  0  0  0  0  0  0  0  0
   13.6436    4.2952  -27.6828 C   0  0  0  0  0  0  0  0  0  0  0  0
   16.8864    3.8496  -28.2036 C   0  0  0  0  0  0  0  0  0  0  0  0
   17.1624    4.9800  -27.4335 C   0  0  0  0  0  0  0  0  0  0  0  0
   17.3627    6.1805  -28.0378 C   0  0  0  0  0  0  0  0  0  0  0  0
   17.3481    6.2401  -29.4347 C   0  0  0  0  0  0  0  0  0  0  0  0
   17.3912    7.4620  -30.0451 O   0  0  0  0  0  0  0  0  0  0  0  0
   17.2611    5.0808  -30.2068 C   0  0  0  0  0  0  0  0  0  0  0  0
   17.1500    3.8804  -29.5605 C   0  0  0  0  0  0  0  0  0  0  0  0
  8  7  1  0
  7  6  4  0
  7  9  4  0
  6  5  4  0
  5  4  4  0
  9 10  4  0
 10  4  4  0
  4  2  1  0
  2  1  1  1
  2  3  1  0
  2 11  1  0
 11 12  4  0
 11 17  4  0
 12 13  4  0
 13 14  4  0
 17 16  4  0
 16 14  4  0
 14 15  1  0
M  END
$$$$
