
     RDKit          3D

 10 10  0  0  0  0  0  0  0  0999 V2000
  -16.5333   -3.7303  -26.3733 C   0  0  0  0  0  0  0  0  0  0  0  0
  -15.6375   -4.3417  -27.5209 C   0  0  2  0  0  0  0  0  0  0  0  0
  -16.0828   -3.8168  -28.8742 C   0  0  0  0  0  0  0  0  0  0  0  0
  -15.6772   -5.7268  -27.4794 C   0  0  0  0  0  0  0  0  0  0  0  0
  -16.7980   -6.3257  -26.9019 C   0  0  0  0  0  0  0  0  0  0  0  0
  -16.7519   -7.7070  -26.5620 C   0  0  0  0  0  0  0  0  0  0  0  0
  -15.5913   -8.4517  -26.9166 C   0  0  0  0  0  0  0  0  0  0  0  0
  -15.6464   -9.8208  -26.7582 O   0  0  0  0  0  0  0  0  0  0  0  0
  -14.5118   -7.7958  -27.4778 C   0  0  0  0  0  0  0  0  0  0  0  0
  -14.5853   -6.4893  -27.8358 C   0  0  0  0  0  0  0  0  0  0  0  0
  2  1  1  1
  2  3  1  0
  5  6  4  0
  6  7  4  0
 10  9  4  0
  9  7  4  0
  4  5  4  0
  4 10  4  0
  7  8  1  0
  4  2  1  0
M  END
$$$$
