
     RDKit          3D

 11 12  0  0  0  0  0  0  0  0999 V2000
  -15.6050   -8.3430  -25.2890 O   0  0  0  0  0  0  0  0  0  0  0  0
  -16.1060   -7.1010  -25.5860 C   0  0  0  0  0  0  0  0  0  0  0  0
  -17.3060   -6.6760  -25.0100 C   0  0  0  0  0  0  0  0  0  0  0  0
  -17.8280   -5.4210  -25.3120 C   0  0  0  0  0  0  0  0  0  0  0  0
  -17.1130   -4.5870  -26.1680 C   0  0  0  0  0  0  0  0  0  0  0  0
  -15.9720   -5.0360  -26.8020 C   0  0  0  0  0  0  0  0  0  0  0  0
  -15.4200   -6.2720  -26.4770 C   0  0  0  0  0  0  0  0  0  0  0  0
  -15.2970   -4.1290  -27.5880 C   0  0  0  0  0  0  0  0  0  0  0  0
  -16.0030   -2.9570  -28.3390 C   0  0  0  0  0  0  0  0  0  0  0  0
  -16.6350   -2.2280  -27.1350 C   0  0  0  0  0  0  0  0  0  0  0  0
  -17.6060   -3.3550  -26.5770 C   0  0  0  0  0  0  0  0  0  0  0  0
  4  3  2  0
  3  2  1  0
  5  4  1  0
  2  7  2  0
  7  6  1  0
 10  9  1  0
 11 10  1  0
  9  8  1  0
 11  5  1  0
  8  6  1  0
  2  1  1  0
  5  6  2  0
M  END
$$$$
