
     RDKit          3D

 11 12  0  0  0  0  0  0  0  0999 V2000
  -17.6123   -0.6519  -29.2441 O   0  0  0  0  0  0  0  0  0  0  0  0
  -17.5985   -1.8408  -28.5936 C   0  0  0  0  0  0  0  0  0  0  0  0
  -17.8583   -3.0294  -29.2837 C   0  0  0  0  0  0  0  0  0  0  0  0
  -17.6868   -4.2802  -28.6760 C   0  0  0  0  0  0  0  0  0  0  0  0
  -17.0982   -4.3084  -27.3679 C   0  0  0  0  0  0  0  0  0  0  0  0
  -16.9400   -3.1375  -26.6780 C   0  0  0  0  0  0  0  0  0  0  0  0
  -17.1949   -1.9058  -27.2392 C   0  0  0  0  0  0  0  0  0  0  0  0
  -16.4049   -3.2326  -25.3967 C   0  0  0  0  0  0  0  0  0  0  0  0
  -16.5235   -4.5073  -24.5098 C   0  0  0  0  0  0  0  0  0  0  0  0
  -15.9456   -5.5637  -25.4599 C   0  0  0  0  0  0  0  0  0  0  0  0
  -16.9536   -5.4888  -26.6805 C   0  0  0  0  0  0  0  0  0  0  0  0
  4  3  4  0
  3  2  4  0
  5  4  4  0
  2  7  4  0
  7  6  4  0
 10  9  1  0
 11 10  1  0
  9  8  1  0
 11  5  1  0
  8  6  1  0
  2  1  1  0
  5  6  4  0
M  END
$$$$
