
     RDKit          3D

 34 37  0  0  0  0  0  0  0  0999 V2000
  -25.3740    8.9440   -5.7170 C   0  0  0  0  0  0  0  0  0  0  0  0
  -24.2220    9.2600   -4.7420 C   0  0  0  0  0  0  0  0  0  0  0  0
  -23.8200   10.5640   -4.4040 C   0  0  0  0  0  0  0  0  0  0  0  0
  -22.7870   10.8570   -3.5120 C   0  0  0  0  0  0  0  0  0  0  0  0
  -22.0770    9.8660   -2.8780 C   0  0  0  0  0  0  0  0  0  0  0  0
  -20.7640   10.2070   -1.7060 S   0  0  0  0  0  0  0  0  0  0  0  0
  -19.7520    8.7090   -1.7100 C   0  0  2  0  0  0  0  0  0  0  0  0
  -20.2140    7.8240   -0.7420 O   0  0  0  0  0  0  0  0  0  0  0  0
  -19.6160    6.5510   -0.8840 C   0  0  2  0  0  0  0  0  0  0  0  0
  -20.2960    5.5800    0.0860 C   0  0  0  0  0  0  0  0  0  0  0  0
  -21.6460    5.4170   -0.2390 O   0  0  0  0  0  0  0  0  0  0  0  0
  -18.1030    6.6820   -0.5860 C   0  0  2  0  0  0  0  0  0  0  0  0
  -17.8940    7.1240    0.7150 O   0  0  0  0  0  0  0  0  0  0  0  0
  -17.5670    7.7010   -1.6120 C   0  0  2  0  0  0  0  0  0  0  0  0
  -16.1470    7.8610   -1.4580 N   0  0  0  0  0  0  0  0  0  0  0  0
  -15.4330    8.3140   -0.3740 C   0  0  0  0  0  0  0  0  0  0  0  0
  -14.1080    8.2620   -0.7740 C   0  0  0  0  0  0  0  0  0  0  0  0
  -12.8980    8.5940   -0.0400 C   0  0  0  0  0  0  0  0  0  0  0  0
  -11.6840    9.0060   -0.6420 C   0  0  0  0  0  0  0  0  0  0  0  0
  -11.6560    9.1740   -1.9590 F   0  0  0  0  0  0  0  0  0  0  0  0
  -10.5340    9.2870    0.0510 C   0  0  0  0  0  0  0  0  0  0  0  0
   -9.4550    9.6940   -0.6020 F   0  0  0  0  0  0  0  0  0  0  0  0
  -10.5180    9.1410    1.4260 C   0  0  0  0  0  0  0  0  0  0  0  0
   -9.4710    9.3960    2.0980 F   0  0  0  0  0  0  0  0  0  0  0  0
  -11.6600    8.7190    2.0720 C   0  0  0  0  0  0  0  0  0  0  0  0
  -11.6490    8.5930    3.3840 F   0  0  0  0  0  0  0  0  0  0  0  0
  -12.8080    8.4530    1.3580 C   0  0  0  0  0  0  0  0  0  0  0  0
  -13.8770    8.0210    2.0100 F   0  0  0  0  0  0  0  0  0  0  0  0
  -14.1220    7.7740   -2.0900 N   0  0  0  0  0  0  0  0  0  0  0  0
  -15.2960    7.5450   -2.4710 N   0  0  0  0  0  0  0  0  0  0  0  0
  -18.2670    9.0670   -1.4840 C   0  0  1  0  0  0  0  0  0  0  0  0
  -17.8000    9.8660   -2.5310 O   0  0  0  0  0  0  0  0  0  0  0  0
  -22.4430    8.5640   -3.1820 C   0  0  0  0  0  0  0  0  0  0  0  0
  -23.4780    8.2750   -4.0810 C   0  0  0  0  0  0  0  0  0  0  0  0
 18 19  2  0
 17 18  1  0
 18 27  1  0
 19 21  1  0
 19 20  1  0
  2  1  1  0
  3  2  2  0
 34  2  1  0
  4  3  1  0
  5  4  2  0
 33 34  2  0
  5 33  1  0
  6  5  1  0
 31  7  1  0
  7  8  1  0
  7  6  1  1
  9 10  1  1
 12  9  1  0
  9  8  1  0
 10 11  1  0
 14 12  1  0
 12 13  1  1
 14 31  1  0
 14 15  1  1
 16 17  2  0
 16 15  1  0
 17 29  1  0
 21 23  2  0
 21 22  1  0
 23 25  1  0
 23 24  1  0
 25 27  2  0
 25 26  1  0
 27 28  1  0
 31 32  1  6
 15 30  1  0
 29 30  2  0
M  END
$$$$
