
     RDKit          3D

 34 37  0  0  0  0  0  0  0  0999 V2000
  -25.2080    9.6570   -5.6070 C   0  0  0  0  0  0  0  0  0  0  0  0
  -23.9450    9.9120   -4.7840 C   0  0  0  0  0  0  0  0  0  0  0  0
  -23.2160    8.8730   -4.1840 C   0  0  0  0  0  0  0  0  0  0  0  0
  -22.0610    9.1570   -3.4120 C   0  0  0  0  0  0  0  0  0  0  0  0
  -21.5840   10.4800   -3.2960 C   0  0  0  0  0  0  0  0  0  0  0  0
  -20.0900   10.8100   -2.3740 S   0  0  0  0  0  0  0  0  0  0  0  0
  -19.0450    9.2180   -2.4080 C   0  0  2  0  0  0  0  0  0  0  0  0
  -19.4530    8.3670   -1.3910 O   0  0  0  0  0  0  0  0  0  0  0  0
  -18.8740    7.1150   -1.5060 C   0  0  2  0  0  0  0  0  0  0  0  0
  -19.4800    6.2670   -0.4690 C   0  0  0  0  0  0  0  0  0  0  0  0
  -20.8250    6.0250   -0.6600 O   0  0  0  0  0  0  0  0  0  0  0  0
  -17.3220    7.2300   -1.3600 C   0  0  2  0  0  0  0  0  0  0  0  0
  -17.0040    7.7240   -0.0820 O   0  0  0  0  0  0  0  0  0  0  0  0
  -16.8220    8.2110   -2.4370 C   0  0  2  0  0  0  0  0  0  0  0  0
  -15.3910    8.2910   -2.3810 N   0  0  0  0  0  0  0  0  0  0  0  0
  -14.5290    8.7950   -1.4430 C   0  0  0  0  0  0  0  0  0  0  0  0
  -13.2160    8.6400   -1.8770 C   0  0  0  0  0  0  0  0  0  0  0  0
  -11.9300    8.9770   -1.2310 C   0  0  0  0  0  0  0  0  0  0  0  0
  -11.7000    8.9290    0.0890 C   0  0  0  0  0  0  0  0  0  0  0  0
  -12.7610    8.6040    0.7680 F   0  0  0  0  0  0  0  0  0  0  0  0
  -10.5210    9.2210    0.7580 C   0  0  0  0  0  0  0  0  0  0  0  0
  -10.4570    9.1310    2.0800 F   0  0  0  0  0  0  0  0  0  0  0  0
   -9.3660    9.5200    0.0090 C   0  0  0  0  0  0  0  0  0  0  0  0
   -8.1460    9.7810    0.5770 O   0  0  0  0  0  0  0  0  0  0  0  0
   -9.5490    9.5620   -1.3780 C   0  0  0  0  0  0  0  0  0  0  0  0
   -8.5160    9.8720   -2.1640 F   0  0  0  0  0  0  0  0  0  0  0  0
  -10.8000    9.2360   -1.9320 C   0  0  0  0  0  0  0  0  0  0  0  0
  -10.9740    9.2810   -3.2460 F   0  0  0  0  0  0  0  0  0  0  0  0
  -13.3630    8.0390   -3.1760 N   0  0  0  0  0  0  0  0  0  0  0  0
  -14.6360    7.8920   -3.4660 N   0  0  0  0  0  0  0  0  0  0  0  0
  -17.5420    9.5100   -2.3410 C   0  0  1  0  0  0  0  0  0  0  0  0
  -17.1740   10.3470   -3.4370 O   0  0  0  0  0  0  0  0  0  0  0  0
  -22.2880   11.5070   -3.8720 C   0  0  0  0  0  0  0  0  0  0  0  0
  -23.4350   11.2190   -4.6040 C   0  0  0  0  0  0  0  0  0  0  0  0
  9 10  1  1
 10 11  1  0
 17 16  2  0
 18 17  1  0
 17 29  1  0
 19 21  2  0
 21 23  1  0
 21 22  1  0
  2  1  1  0
  3  2  2  0
  2 34  1  0
  4  3  1  0
  5  4  2  0
  5 33  1  0
  6  5  1  0
 31  7  1  0
  7  8  1  0
  7  6  1  1
 12  9  1  0
  9  8  1  0
 14 12  1  0
 12 13  1  1
 14 31  1  0
 14 15  1  1
 16 15  1  0
 18 19  1  0
 18 27  2  0
 19 20  1  0
 23 25  2  0
 23 24  1  0
 25 27  1  0
 25 26  1  0
 27 28  1  0
 31 32  1  6
 33 34  2  0
 15 30  1  0
 29 30  2  0
M  END
$$$$
