
     RDKit          3D

 36 39  0  0  0  0  0  0  0  0999 V2000
  -25.7600    8.8020   -4.9920 C   0  0  0  0  0  0  0  0  0  0  0  0
  -24.5500    9.0680   -4.1270 C   0  0  0  0  0  0  0  0  0  0  0  0
  -23.5520    8.1220   -3.9650 C   0  0  0  0  0  0  0  0  0  0  0  0
  -22.4450    8.3660   -3.1710 C   0  0  0  0  0  0  0  0  0  0  0  0
  -22.3100    9.5800   -2.5100 C   0  0  0  0  0  0  0  0  0  0  0  0
  -20.9100    9.9430   -1.4730 S   0  0  0  0  0  0  0  0  0  0  0  0
  -19.8580    8.4490   -1.5800 C   0  0  2  0  0  0  0  0  0  0  0  0
  -20.3040    7.4770   -0.6400 O   0  0  0  0  0  0  0  0  0  0  0  0
  -19.5900    6.2340   -0.7330 C   0  0  2  0  0  0  0  0  0  0  0  0
  -20.2220    5.2730    0.2500 C   0  0  0  0  0  0  0  0  0  0  0  0
  -21.5890    5.0150   -0.0730 O   0  0  0  0  0  0  0  0  0  0  0  0
  -18.1020    6.4920   -0.4660 C   0  0  2  0  0  0  0  0  0  0  0  0
  -17.9520    6.9680    0.8680 O   0  0  0  0  0  0  0  0  0  0  0  0
  -17.5660    7.5130   -1.4730 C   0  0  2  0  0  0  0  0  0  0  0  0
  -16.1290    7.7790   -1.3180 N   0  0  0  0  0  0  0  0  0  0  0  0
  -15.4470    8.1620   -0.2660 C   0  0  0  0  0  0  0  0  0  0  0  0
  -14.1430    8.2850   -0.6660 C   0  0  0  0  0  0  0  0  0  0  0  0
  -12.9470    8.6690    0.0810 C   0  0  0  0  0  0  0  0  0  0  0  0
  -11.8610    9.2560   -0.5420 C   0  0  0  0  0  0  0  0  0  0  0  0
  -11.9190    9.4930   -1.8620 F   0  0  0  0  0  0  0  0  0  0  0  0
  -10.7360    9.6210    0.1600 C   0  0  0  0  0  0  0  0  0  0  0  0
   -9.7210   10.1880   -0.5190 F   0  0  0  0  0  0  0  0  0  0  0  0
  -10.6270    9.3950    1.5290 C   0  0  0  0  0  0  0  0  0  0  0  0
   -9.4870    9.7480    2.3250 N   0  0  0  0  0  0  0  0  0  0  0  0
   -8.5930   10.4690    1.8340 N   0  0  0  0  0  0  0  0  0  0  0  0
   -7.8730   11.1240    1.2580 N   0  0  0  0  0  0  0  0  0  0  0  0
  -11.7210    8.8030    2.1480 C   0  0  0  0  0  0  0  0  0  0  0  0
  -11.6920    8.5730    3.4740 F   0  0  0  0  0  0  0  0  0  0  0  0
  -12.8440    8.4460    1.4390 C   0  0  0  0  0  0  0  0  0  0  0  0
  -13.8790    7.8730    2.0710 F   0  0  0  0  0  0  0  0  0  0  0  0
  -14.0810    7.9420   -1.9800 N   0  0  0  0  0  0  0  0  0  0  0  0
  -15.2950    7.6420   -2.3780 N   0  0  0  0  0  0  0  0  0  0  0  0
  -18.3870    8.8080   -1.3980 C   0  0  1  0  0  0  0  0  0  0  0  0
  -18.0240    9.7450   -2.4190 O   0  0  0  0  0  0  0  0  0  0  0  0
  -23.3010   10.5360   -2.6710 C   0  0  0  0  0  0  0  0  0  0  0  0
  -24.4020   10.2740   -3.4680 C   0  0  0  0  0  0  0  0  0  0  0  0
 16 15  1  0
 14 15  1  1
 15 32  1  0
 24 25  2  3
 25 26  2  0
  5 35  2  0
 35 36  1  0
  4  3  2  0
  3  2  1  0
  5  4  1  0
  6  5  1  0
 33  7  1  0
  7  8  1  0
  7  6  1  1
  9 10  1  1
 10 11  1  0
 17 16  2  0
 29 18  2  0
 18 17  1  0
 19 18  1  0
 21 19  2  0
 23 21  1  0
 21 22  1  0
 27 29  1  0
 29 30  1  0
 14 33  1  0
 33 34  1  6
  2  1  1  0
 14 12  1  0
 12  9  1  0
 12 13  1  1
 17 31  1  0
 19 20  1  0
 23 27  2  0
 23 24  1  0
 27 28  1  0
  2 36  2  0
  9  8  1  0
 31 32  2  0
M  CHG  2  25   1  26  -1
M  END
$$$$
