
     RDKit          3D

 34 37  0  0  0  0  0  0  0  0999 V2000
  -25.4310    9.8240   -5.8230 C   0  0  0  0  0  0  0  0  0  0  0  0
  -24.3660    9.8850   -4.7750 C   0  0  0  0  0  0  0  0  0  0  0  0
  -23.5840    8.7590   -4.4720 C   0  0  0  0  0  0  0  0  0  0  0  0
  -22.5820    8.7910   -3.4820 C   0  0  0  0  0  0  0  0  0  0  0  0
  -22.3180    9.9670   -2.7380 C   0  0  0  0  0  0  0  0  0  0  0  0
  -21.0020    9.9760   -1.4610 S   0  0  0  0  0  0  0  0  0  0  0  0
  -20.0070    8.5020   -1.5600 C   0  0  2  0  0  0  0  0  0  0  0  0
  -20.4260    7.5430   -0.6280 O   0  0  0  0  0  0  0  0  0  0  0  0
  -19.7000    6.2660   -0.6490 C   0  0  2  0  0  0  0  0  0  0  0  0
  -20.3220    5.3210    0.3560 C   0  0  0  0  0  0  0  0  0  0  0  0
  -21.6380    5.0790   -0.0520 O   0  0  0  0  0  0  0  0  0  0  0  0
  -18.2000    6.5860   -0.4510 C   0  0  2  0  0  0  0  0  0  0  0  0
  -17.9810    7.0200    0.8180 O   0  0  0  0  0  0  0  0  0  0  0  0
  -17.6920    7.6100   -1.5240 C   0  0  2  0  0  0  0  0  0  0  0  0
  -16.2640    7.7560   -1.4890 N   0  0  0  0  0  0  0  0  0  0  0  0
  -15.5260    8.3110   -0.4310 C   0  0  0  0  0  0  0  0  0  0  0  0
  -14.1760    8.2830   -0.8280 C   0  0  0  0  0  0  0  0  0  0  0  0
  -12.9550    8.7040   -0.1150 C   0  0  0  0  0  0  0  0  0  0  0  0
  -12.7670    8.5820    1.2740 C   0  0  0  0  0  0  0  0  0  0  0  0
  -13.7740    8.1170    1.9500 F   0  0  0  0  0  0  0  0  0  0  0  0
  -11.5640    8.9740    1.9620 C   0  0  0  0  0  0  0  0  0  0  0  0
  -11.5080    8.8170    3.2830 F   0  0  0  0  0  0  0  0  0  0  0  0
  -10.4260    9.4860    1.3070 C   0  0  0  0  0  0  0  0  0  0  0  0
   -9.2480    9.8650    1.9570 N   0  0  0  0  0  0  0  0  0  0  0  0
  -10.6030    9.5830   -0.0860 C   0  0  0  0  0  0  0  0  0  0  0  0
   -9.5840   10.0600   -0.8170 F   0  0  0  0  0  0  0  0  0  0  0  0
  -11.8130    9.2000   -0.7510 C   0  0  0  0  0  0  0  0  0  0  0  0
  -11.8920    9.3240   -2.0620 F   0  0  0  0  0  0  0  0  0  0  0  0
  -14.2010    7.7140   -2.1220 N   0  0  0  0  0  0  0  0  0  0  0  0
  -15.3870    7.4260   -2.4960 N   0  0  0  0  0  0  0  0  0  0  0  0
  -18.5000    8.9120   -1.4050 C   0  0  1  0  0  0  0  0  0  0  0  0
  -18.0990    9.7360   -2.4720 O   0  0  0  0  0  0  0  0  0  0  0  0
  -23.1010   11.0960   -3.0350 C   0  0  0  0  0  0  0  0  0  0  0  0
  -24.1060   11.0490   -4.0340 C   0  0  0  0  0  0  0  0  0  0  0  0
  9 10  1  1
 10 11  1  0
 17 16  2  0
 18 17  1  0
 17 29  1  0
 19 21  2  0
 21 23  1  0
 21 22  1  0
  2  1  1  0
  3  2  2  0
  2 34  1  0
  4  3  1  0
  5  4  2  0
  5 33  1  0
  6  5  1  0
 31  7  1  0
  7  8  1  0
  7  6  1  1
 12  9  1  0
  9  8  1  0
 14 12  1  0
 12 13  1  1
 14 31  1  0
 14 15  1  1
 16 15  1  0
 18 19  1  0
 18 27  2  0
 19 20  1  0
 23 25  2  0
 23 24  1  0
 25 27  1  0
 25 26  1  0
 27 28  1  0
 31 32  1  6
 33 34  2  0
 15 30  1  0
 29 30  2  0
M  END
$$$$
