
     RDKit          3D

 35 38  0  0  0  0  0  0  0  0999 V2000
   -9.3640   11.1860    2.3720 C   0  0  0  0  0  0  0  0  0  0  0  0
   -9.6330   10.0400    1.5190 N   0  0  0  0  0  0  0  0  0  0  0  0
  -10.8930    9.6590    0.8850 C   0  0  0  0  0  0  0  0  0  0  0  0
  -11.1440    9.8460   -0.4720 C   0  0  0  0  0  0  0  0  0  0  0  0
  -10.2120   10.4260   -1.2460 F   0  0  0  0  0  0  0  0  0  0  0  0
  -12.3180    9.4440   -1.0720 C   0  0  0  0  0  0  0  0  0  0  0  0
  -12.4910    9.6480   -2.3850 F   0  0  0  0  0  0  0  0  0  0  0  0
  -13.3210    8.8110   -0.3650 C   0  0  0  0  0  0  0  0  0  0  0  0
  -14.5780    8.3580   -0.9900 C   0  0  0  0  0  0  0  0  0  0  0  0
  -15.8670    8.3530   -0.5210 C   0  0  0  0  0  0  0  0  0  0  0  0
  -16.5950    7.8070   -1.5060 N   0  0  0  0  0  0  0  0  0  0  0  0
  -18.0400    7.5330   -1.5440 C   0  0  2  0  0  0  0  0  0  0  0  0
  -18.9060    8.8130   -1.4700 C   0  0  1  0  0  0  0  0  0  0  0  0
  -18.6430    9.6180   -2.6070 O   0  0  0  0  0  0  0  0  0  0  0  0
  -20.3260    8.2530   -1.5500 C   0  0  2  0  0  0  0  0  0  0  0  0
  -21.6210    9.5010   -1.6260 S   0  0  0  0  0  0  0  0  0  0  0  0
  -22.8210    8.5140   -2.4910 C   0  0  0  0  0  0  0  0  0  0  0  0
  -23.5400    7.5720   -1.7670 C   0  0  0  0  0  0  0  0  0  0  0  0
  -24.4340    6.7360   -2.4080 C   0  0  0  0  0  0  0  0  0  0  0  0
  -24.6450    6.8180   -3.7790 C   0  0  0  0  0  0  0  0  0  0  0  0
  -25.6060    5.8910   -4.4740 C   0  0  0  0  0  0  0  0  0  0  0  0
  -23.9280    7.7740   -4.4890 C   0  0  0  0  0  0  0  0  0  0  0  0
  -23.0230    8.6110   -3.8610 C   0  0  0  0  0  0  0  0  0  0  0  0
  -20.5870    7.4240   -0.4410 O   0  0  0  0  0  0  0  0  0  0  0  0
  -19.8950    6.1860   -0.6110 C   0  0  2  0  0  0  0  0  0  0  0  0
  -20.3950    5.3110    0.4840 C   0  0  0  0  0  0  0  0  0  0  0  0
  -21.7500    5.0570    0.2490 O   0  0  0  0  0  0  0  0  0  0  0  0
  -18.4090    6.4790   -0.5080 C   0  0  2  0  0  0  0  0  0  0  0  0
  -18.1310    6.9700    0.7890 O   0  0  0  0  0  0  0  0  0  0  0  0
  -15.8170    7.4830   -2.5610 N   0  0  0  0  0  0  0  0  0  0  0  0
  -14.5920    7.8220   -2.2440 N   0  0  0  0  0  0  0  0  0  0  0  0
  -13.0800    8.6160    0.9810 C   0  0  0  0  0  0  0  0  0  0  0  0
  -14.0170    8.0210    1.7200 F   0  0  0  0  0  0  0  0  0  0  0  0
  -11.9210    9.0410    1.5880 C   0  0  0  0  0  0  0  0  0  0  0  0
  -11.8280    8.8910    2.9090 F   0  0  0  0  0  0  0  0  0  0  0  0
 13 15  1  0
 15 24  1  0
 15 16  1  1
 17 18  2  0
 18 19  1  0
 17 23  1  0
 16 17  1  0
 25 26  1  1
 26 27  1  0
 12 28  1  0
 12 13  1  0
 12 11  1  1
 28 25  1  0
 28 29  1  1
 19 20  2  0
 25 24  1  0
  9 10  2  0
 10 11  1  0
  2  1  1  0
  4  3  2  0
  3 34  1  0
  3  2  1  0
  6  4  1  0
  4  5  1  0
  8  6  2  0
  6  7  1  0
  8  9  1  0
  8 32  1  0
  9 31  1  0
 20 21  1  0
 20 22  1  0
 22 23  2  0
 13 14  1  6
 32 34  2  0
 32 33  1  0
 34 35  1  0
 11 30  1  0
 30 31  2  0
M  END
$$$$
