
     RDKit          3D

 47 47  0  0  0  0  0  0  0  0999 V2000
  -18.1341   -9.3397    4.9363 C   0  0  0  0  0  0  0  0  0  0  0  0
  -16.7434   -9.7202    5.2766 C   0  0  1  0  0  0  0  0  0  0  0  0
  -16.3747  -11.0483    4.8331 N   0  0  0  0  0  0  0  0  0  0  0  0
  -15.7145   -8.7056    4.6987 C   0  0  0  0  0  0  0  0  0  0  0  0
  -16.1320   -7.8099    3.9664 O   0  0  0  0  0  0  0  0  0  0  0  0
  -14.5263   -8.6708    5.2577 N   0  0  0  0  0  0  0  0  0  0  0  0
  -13.5255   -7.6931    4.9029 C   0  0  2  0  0  0  0  0  0  0  0  0
  -12.1394   -8.0901    5.3549 C   0  0  0  0  0  0  0  0  0  0  0  0
  -13.9080   -6.3069    5.4165 C   0  0  0  0  0  0  0  0  0  0  0  0
  -15.0555   -5.9101    5.4152 O   0  0  0  0  0  0  0  0  0  0  0  0
  -12.8818   -5.5401    5.8197 N   0  0  0  0  0  0  0  0  0  0  0  0
  -12.4758   -4.3495    5.0868 C   0  0  2  0  0  0  0  0  0  0  0  0
  -11.8401   -4.6714    3.7395 C   0  0  0  0  0  0  0  0  0  0  0  0
  -11.2910   -3.5001    3.0299 C   0  0  0  0  0  0  0  0  0  0  0  0
  -12.0211   -2.5035    2.7635 O   0  0  0  0  0  0  0  0  0  0  0  0
  -10.0702   -3.3517    3.0574 O   0  0  0  0  0  0  0  0  0  0  0  0
  -11.4776   -3.5586    5.9407 C   0  0  0  0  0  0  0  0  0  0  0  0
  -11.5934   -2.3355    6.1309 O   0  0  0  0  0  0  0  0  0  0  0  0
  -10.3180   -4.1662    6.1600 N   0  0  0  0  0  0  0  0  0  0  0  0
   -9.1103   -3.4951    6.6186 C   0  0  2  0  0  0  0  0  0  0  0  0
   -9.4467   -2.6269    7.8433 C   0  0  0  0  0  0  0  0  0  0  0  0
  -10.4005   -1.8305    7.7938 O   0  0  0  0  0  0  0  0  0  0  0  0
   -8.5955   -2.7141    8.8555 N   0  0  0  0  0  0  0  0  0  0  0  0
   -7.1830   -2.4497    8.7203 C   0  0  2  0  0  0  0  0  0  0  0  0
   -6.6401   -1.6235    9.9065 C   0  0  0  0  0  0  0  0  0  0  0  0
   -7.3957   -1.0650   10.6649 O   0  0  0  0  0  0  0  0  0  0  0  0
   -5.3084   -1.4868    9.9218 N   0  0  0  0  0  0  0  0  0  0  0  0
   -4.5942   -0.4005    9.2868 C   0  0  2  0  0  0  0  0  0  0  0  0
   -3.1784   -0.8974    9.0978 C   0  0  0  0  0  0  0  0  0  0  0  0
   -2.5787   -0.6557    7.9795 O   0  0  0  0  0  0  0  0  0  0  0  0
   -2.5961   -1.7624    9.9729 N   0  0  0  0  0  0  0  0  0  0  0  0
   -2.5211   -3.2225    9.8876 C   0  0  0  0  0  0  0  0  0  0  0  0
   -1.9571   -3.6127   11.2048 C   0  0  0  0  0  0  0  0  0  0  0  0
   -2.3064   -2.5938   12.1571 C   0  0  0  0  0  0  0  0  0  0  0  0
   -2.4964   -1.2925   11.3726 C   0  0  1  0  0  0  0  0  0  0  0  0
   -1.3237   -0.3725   11.5549 C   0  0  0  0  0  0  0  0  0  0  0  0
   -1.2583    0.2517   12.6434 O   0  0  0  0  0  0  0  0  0  0  0  0
   -0.6439   -0.0244   10.5836 O   0  0  0  0  0  0  0  0  0  0  0  0
   -4.6960    0.8439   10.1798 C   0  0  2  0  0  0  0  0  0  0  0  0
   -3.4136    1.1155   11.0392 C   0  0  0  0  0  0  0  0  0  0  0  0
   -5.8143    0.7547   11.0487 O   0  0  0  0  0  0  0  0  0  0  0  0
   -6.8865   -1.7061    7.3799 C   0  0  2  0  0  0  0  0  0  0  0  0
   -5.4557   -1.3232    7.3272 C   0  0  0  0  0  0  0  0  0  0  0  0
   -7.7043   -0.5225    7.3111 O   0  0  0  0  0  0  0  0  0  0  0  0
   -8.5253   -2.6535    5.5044 C   0  0  2  0  0  0  0  0  0  0  0  0
   -6.9941   -2.6069    5.7004 C   0  0  0  0  0  0  0  0  0  0  0  0
   -9.0268   -1.3191    5.5920 O   0  0  0  0  0  0  0  0  0  0  0  0
  3  2  1  0
  2  4  1  0
  2  1  1  1
  4  5  2  0
  4  6  1  0
  6  7  1  0
  7  9  1  0
  7  8  1  6
  9 10  2  0
  9 11  1  0
 11 12  1  0
 12 17  1  0
 12 13  1  1
 17 18  2  0
 17 19  1  0
 13 14  1  0
 14 15  2  0
 14 16  1  0
 20 19  1  6
 20 21  1  0
 20 45  1  0
 21 22  2  0
 21 23  1  0
 45 47  1  0
 45 46  1  6
 24 23  1  1
 24 25  1  0
 24 42  1  0
 25 26  2  0
 25 27  1  0
 42 44  1  0
 42 43  1  6
 28 27  1  1
 28 29  1  0
 28 39  1  0
 29 30  2  0
 29 31  1  0
 39 41  1  0
 39 40  1  6
 31 35  1  0
 31 32  1  0
 35 36  1  6
 35 34  1  0
 36 38  1  0
 36 37  2  0
 34 33  1  0
 33 32  1  0
M  CHG  1   3   1
M  END
$$$$
