
     RDKit          3D

 26 29  0  0  0  0  0  0  0  0999 V2000
    7.7822   20.7110   21.4686 C   0  0  0  0  0  0  0  0  0  0  0  0
    7.9664   22.1786   22.0201 C   0  0  1  0  0  0  0  0  0  0  0  0
    9.2497   22.3218   22.6594 C   0  0  0  0  0  0  0  0  0  0  0  0
    9.6043   22.0028   23.9197 C   0  0  0  0  0  0  0  0  0  0  0  0
   10.8331   22.3579   24.4973 C   0  0  0  0  0  0  0  0  0  0  0  0
   11.6942   23.1489   23.7030 C   0  0  0  0  0  0  0  0  0  0  0  0
   11.3570   23.4502   22.3410 C   0  0  0  0  0  0  0  0  0  0  0  0
   12.5537   23.8282   21.5440 C   0  0  0  0  0  0  0  0  0  0  0  0
   12.4359   23.9262   20.1950 N   0  0  0  0  0  0  0  0  0  0  0  0
   13.6940   23.8298   22.0575 O   0  0  0  0  0  0  0  0  0  0  0  0
   10.0645   23.1691   21.9102 C   0  0  0  0  0  0  0  0  0  0  0  0
    9.2568   23.6573   20.9789 C   0  0  0  0  0  0  0  0  0  0  0  0
    9.6872   24.1847   19.9506 O   0  0  0  0  0  0  0  0  0  0  0  0
    7.9950   23.1927   21.0216 N   0  0  0  0  0  0  0  0  0  0  0  0
    7.0082   23.7621   19.9712 C   0  0  1  0  0  0  0  0  0  0  0  0
    6.9731   23.0073   18.6745 C   0  0  0  0  0  0  0  0  0  0  0  0
    6.3052   21.6963   18.8154 C   0  0  0  0  0  0  0  0  0  0  0  0
    4.9545   21.8657   19.4071 N   0  0  2  0  0  0  0  0  0  0  0  0
    3.8319   22.1755   18.5004 C   0  0  2  0  0  0  0  0  0  0  0  0
    3.8369   21.3140   17.2468 C   0  0  0  0  0  0  0  0  0  0  0  0
    2.5367   21.5819   16.4126 C   0  0  0  0  0  0  0  0  0  0  0  0
    2.6578   23.0215   15.8554 C   0  0  0  0  0  0  0  0  0  0  0  0
    2.6418   24.0063   17.0375 C   0  0  0  0  0  0  0  0  0  0  0  0
    3.7953   23.6713   18.1093 C   0  0  0  0  0  0  0  0  0  0  0  0
    4.8589   22.6333   20.6646 C   0  0  0  0  0  0  0  0  0  0  0  0
    5.5918   23.9262   20.5779 C   0  0  0  0  0  0  0  0  0  0  0  0
 12 11  1  0
 14 12  1  0
 12 13  2  0
  3 11  4  0
 11  7  4  0
  2  3  1  0
 14  2  1  0
  2  1  1  6
  3  4  4  0
  7  8  1  0
  7  6  4  0
 16 15  1  0
 15 14  1  6
 26 15  1  0
 17 16  1  0
 25 26  1  0
 18 17  1  1
 18 25  1  0
 20 21  1  0
 19 20  1  6
  8 10  2  0
  8  9  1  0
 21 22  1  0
 23 22  1  0
 24 23  1  0
 19 24  1  0
 19 18  1  0
  4  5  4  0
  6  5  4  0
M  CHG  1  18   1
M  END
$$$$
