
     RDKit          3D

 26 29  0  0  0  0  0  0  0  0999 V2000
    7.5550   20.5740   22.7370 C   0  0  0  0  0  0  0  0  0  0  0  0
    7.9820   22.0450   22.5700 C   0  0  1  0  0  0  0  0  0  0  0  0
    9.3350   22.2700   22.9790 C   0  0  0  0  0  0  0  0  0  0  0  0
    9.8810   22.0280   24.1930 C   0  0  0  0  0  0  0  0  0  0  0  0
   11.2140   22.3430   24.4840 C   0  0  0  0  0  0  0  0  0  0  0  0
   11.9970   22.9160   23.4700 C   0  0  0  0  0  0  0  0  0  0  0  0
   11.4490   23.1760   22.1670 C   0  0  0  0  0  0  0  0  0  0  0  0
   12.4220   23.7380   21.2300 C   0  0  0  0  0  0  0  0  0  0  0  0
   12.0020   24.1410   19.9970 N   0  0  0  0  0  0  0  0  0  0  0  0
   13.6550   23.7720   21.5320 O   0  0  0  0  0  0  0  0  0  0  0  0
   10.0950   22.8410   21.9760 C   0  0  0  0  0  0  0  0  0  0  0  0
    9.2510   22.9420   20.9520 C   0  0  0  0  0  0  0  0  0  0  0  0
    9.5700   23.4380   19.8760 O   0  0  0  0  0  0  0  0  0  0  0  0
    7.9860   22.5180   21.2020 N   0  0  0  0  0  0  0  0  0  0  0  0
    6.9700   22.7000   20.0990 C   0  0  2  0  0  0  0  0  0  0  0  0
    5.6340   23.2840   20.5760 C   0  0  0  0  0  0  0  0  0  0  0  0
    4.7130   23.5390   19.4050 C   0  0  0  0  0  0  0  0  0  0  0  0
    4.5660   22.2920   18.6280 N   0  0  1  0  0  0  0  0  0  0  0  0
    3.4680   22.2330   17.6420 C   0  0  2  0  0  0  0  0  0  0  0  0
    3.4080   23.4680   16.7570 C   0  0  0  0  0  0  0  0  0  0  0  0
    2.3360   23.2390   15.6770 C   0  0  0  0  0  0  0  0  0  0  0  0
    0.9320   23.2630   16.3520 C   0  0  0  0  0  0  0  0  0  0  0  0
    0.8930   22.0480   17.3100 C   0  0  0  0  0  0  0  0  0  0  0  0
    2.1160   22.0030   18.3110 C   0  0  0  0  0  0  0  0  0  0  0  0
    5.8060   21.6960   18.1010 C   0  0  0  0  0  0  0  0  0  0  0  0
    6.8080   21.4500   19.2250 C   0  0  0  0  0  0  0  0  0  0  0  0
 12 11  1  0
 14 12  1  0
 12 13  2  0
  3 11  2  0
 11  7  1  0
  2  3  1  0
 14  2  1  0
  2  1  1  6
  3  4  1  0
  7  8  1  0
  7  6  2  0
 16 15  1  0
 15 14  1  1
 26 15  1  0
 17 16  1  0
 25 26  1  0
 18 17  1  6
 18 25  1  0
 20 21  1  0
 19 20  1  1
  8 10  2  0
  8  9  1  0
 21 22  1  0
 23 22  1  0
 24 23  1  0
 19 24  1  0
 19 18  1  0
  4  5  2  0
  6  5  1  0
M  CHG  1  18   1
M  END
$$$$
