
     RDKit          3D

 26 29  0  0  0  0  0  0  0  0999 V2000
    8.6044   20.1761   20.8284 C   0  0  0  0  0  0  0  0  0  0  0  0
    8.4939   21.4655   21.6822 C   0  0  1  0  0  0  0  0  0  0  0  0
    9.6683   21.9024   22.4138 C   0  0  0  0  0  0  0  0  0  0  0  0
   10.0167   21.5819   23.6817 C   0  0  0  0  0  0  0  0  0  0  0  0
   11.0585   22.2855   24.3032 C   0  0  0  0  0  0  0  0  0  0  0  0
   11.6355   23.3202   23.6870 C   0  0  0  0  0  0  0  0  0  0  0  0
   11.3572   23.6061   22.2986 C   0  0  0  0  0  0  0  0  0  0  0  0
   12.4936   24.1372   21.5542 C   0  0  0  0  0  0  0  0  0  0  0  0
   12.4268   24.2647   20.1534 N   0  0  0  0  0  0  0  0  0  0  0  0
   13.5853   24.1173   22.1221 O   0  0  0  0  0  0  0  0  0  0  0  0
   10.1901   23.0168   21.8025 C   0  0  0  0  0  0  0  0  0  0  0  0
    9.1846   23.4586   21.0172 C   0  0  0  0  0  0  0  0  0  0  0  0
    9.3513   24.3712   20.1816 O   0  0  0  0  0  0  0  0  0  0  0  0
    8.1326   22.6342   20.9392 N   0  0  0  0  0  0  0  0  0  0  0  0
    6.7413   23.1762   20.4645 C   0  0  1  0  0  0  0  0  0  0  0  0
    6.6734   22.8434   18.9461 C   0  0  0  0  0  0  0  0  0  0  0  0
    5.3099   22.9981   18.4001 C   0  0  0  0  0  0  0  0  0  0  0  0
    4.3542   22.1162   19.1703 N   0  0  2  0  0  0  0  0  0  0  0  0
    3.1517   21.8636   18.3836 C   0  0  1  0  0  0  0  0  0  0  0  0
    2.3704   23.0819   18.0029 C   0  0  0  0  0  0  0  0  0  0  0  0
    3.2002   24.0463   17.1035 C   0  0  0  0  0  0  0  0  0  0  0  0
    3.4754   23.2900   15.7683 C   0  0  0  0  0  0  0  0  0  0  0  0
    4.2434   21.9848   16.0830 C   0  0  0  0  0  0  0  0  0  0  0  0
    3.5041   21.1140   17.1314 C   0  0  0  0  0  0  0  0  0  0  0  0
    4.2197   22.5377   20.6070 C   0  0  0  0  0  0  0  0  0  0  0  0
    5.5280   22.6504   21.3284 C   0  0  0  0  0  0  0  0  0  0  0  0
  8  9  1  0
  7  8  1  0
  8 10  2  0
 16 15  1  0
 26 15  1  0
 15 14  1  6
 17 16  1  0
 25 26  1  0
 18 17  1  1
 18 25  1  0
 19 18  1  0
 11  3  4  0
  2  3  1  0
  3  4  4  0
 12 11  1  0
 11  7  4  0
 14  2  1  0
  2  1  1  1
 14 12  1  0
 12 13  2  0
  4  5  4  0
  6  5  4  0
  7  6  4  0
 23 24  1  0
 19 24  1  1
 22 21  1  0
 21 20  1  0
 23 22  1  0
 20 19  1  0
M  CHG  1  18   1
M  END
$$$$
