
     RDKit          3D

 26 29  0  0  0  0  0  0  0  0999 V2000
    6.8400   21.7550   22.7200 C   0  0  0  0  0  0  0  0  0  0  0  0
    8.1820   21.3960   22.0800 C   0  0  2  0  0  0  0  0  0  0  0  0
    9.3780   21.8530   22.6960 C   0  0  0  0  0  0  0  0  0  0  0  0
    9.7630   21.7460   23.9790 C   0  0  0  0  0  0  0  0  0  0  0  0
   10.9890   22.2400   24.3870 C   0  0  0  0  0  0  0  0  0  0  0  0
   11.8280   22.8350   23.4460 C   0  0  0  0  0  0  0  0  0  0  0  0
   11.4510   22.9460   22.0950 C   0  0  0  0  0  0  0  0  0  0  0  0
   12.4530   23.5280   21.2240 C   0  0  0  0  0  0  0  0  0  0  0  0
   12.1250   24.0070   19.9930 N   0  0  0  0  0  0  0  0  0  0  0  0
   13.6410   23.5280   21.5720 O   0  0  0  0  0  0  0  0  0  0  0  0
   10.1980   22.4300   21.7600 C   0  0  0  0  0  0  0  0  0  0  0  0
    9.5090   22.3640   20.6110 C   0  0  0  0  0  0  0  0  0  0  0  0
    9.8910   22.8140   19.5360 O   0  0  0  0  0  0  0  0  0  0  0  0
    8.2870   21.8250   20.7140 N   0  0  0  0  0  0  0  0  0  0  0  0
    7.3120   21.7330   19.5360 C   0  0  2  0  0  0  0  0  0  0  0  0
    6.2740   22.8620   19.7110 C   0  0  0  0  0  0  0  0  0  0  0  0
    5.4240   22.9350   18.4850 C   0  0  0  0  0  0  0  0  0  0  0  0
    4.7200   21.6560   18.2530 N   0  0  1  0  0  0  0  0  0  0  0  0
    3.6720   21.8560   17.2310 C   0  0  2  0  0  0  0  0  0  0  0  0
    3.5610   23.3410   16.7920 C   0  0  0  0  0  0  0  0  0  0  0  0
    2.5230   23.5180   15.6760 C   0  0  0  0  0  0  0  0  0  0  0  0
    1.1400   23.0970   16.2060 C   0  0  0  0  0  0  0  0  0  0  0  0
    1.1930   21.6260   16.6960 C   0  0  0  0  0  0  0  0  0  0  0  0
    2.3150   21.3840   17.7490 C   0  0  0  0  0  0  0  0  0  0  0  0
    5.6260   20.4770   18.0720 C   0  0  0  0  0  0  0  0  0  0  0  0
    6.6460   20.3490   19.2490 C   0  0  0  0  0  0  0  0  0  0  0  0
  8  9  1  0
  7  8  1  0
  8 10  2  0
 16 15  1  0
 26 15  1  0
 15 14  1  1
 17 16  1  0
 25 26  1  0
 18 17  1  6
 18 25  1  0
 19 18  1  0
 11  3  2  0
  2  3  1  0
  3  4  1  0
 12 11  1  0
 11  7  1  0
 14  2  1  0
  2  1  1  1
 14 12  1  0
 12 13  2  0
  4  5  2  0
  6  5  1  0
  7  6  2  0
 23 24  1  0
 19 24  1  1
 22 21  1  0
 21 20  1  0
 23 22  1  0
 20 19  1  0
M  CHG  1  18   1
M  END
$$$$
