
     RDKit          3D

 46 48  0  0  0  0  0  0  0  0999 V2000
    3.3060   -7.2310   13.0160 C   0  0  0  0  0  0  0  0  0  0  0  0
    2.8560   -7.5500   11.6340 N   0  0  0  0  0  0  0  0  0  0  0  0
    2.5750   -8.9280   11.4430 N   0  0  0  0  0  0  0  0  0  0  0  0
    1.3730   -9.4220   11.7550 C   0  0  0  0  0  0  0  0  0  0  0  0
    0.3930   -8.7190   12.0060 O   0  0  0  0  0  0  0  0  0  0  0  0
    1.3040  -10.9120   11.9130 C   0  0  0  0  0  0  0  0  0  0  0  0
    0.6730  -11.5790   10.6620 C   0  0  0  0  0  0  0  0  0  0  0  0
    0.9140  -13.0960   10.5960 C   0  0  2  0  0  0  0  0  0  0  0  0
    0.2540  -13.7290   11.7340 N   0  0  0  0  0  0  0  0  0  0  0  0
    0.1250  -15.0750   11.8450 C   0  0  0  0  0  0  0  0  0  0  0  0
    0.6890  -15.8140   11.0250 O   0  0  0  0  0  0  0  0  0  0  0  0
   -0.5850  -15.4800   12.8290 O   0  0  0  0  0  0  0  0  0  0  0  0
   -0.7030  -16.9280   13.0810 C   0  0  0  0  0  0  0  0  0  0  0  0
   -1.3370  -17.1880   14.3730 C   0  0  0  0  0  0  0  0  0  0  0  0
   -2.6930  -17.5000   14.4820 C   0  0  0  0  0  0  0  0  0  0  0  0
   -3.3290  -17.7780   15.7300 C   0  0  0  0  0  0  0  0  0  0  0  0
   -2.5190  -17.6450   16.8710 C   0  0  0  0  0  0  0  0  0  0  0  0
   -1.1890  -17.2680   16.7630 C   0  0  0  0  0  0  0  0  0  0  0  0
   -0.5840  -17.0410   15.5390 C   0  0  0  0  0  0  0  0  0  0  0  0
    2.4120  -13.3690   10.5650 C   0  0  0  0  0  0  0  0  0  0  0  0
    3.0420  -13.5440   11.6000 O   0  0  0  0  0  0  0  0  0  0  0  0
    2.9370  -13.2290    9.3480 N   0  0  0  0  0  0  0  0  0  0  0  0
    4.3610  -13.3180    9.0010 C   0  0  1  0  0  0  0  0  0  0  0  0
    4.6110  -14.5640    8.1430 C   0  0  0  0  0  0  0  0  0  0  0  0
    4.1680  -15.8590    8.8290 C   0  0  0  0  0  0  0  0  0  0  0  0
    4.1570  -17.0940    7.9220 C   0  0  0  0  0  0  0  0  0  0  0  0
    5.5620  -17.5770    7.5870 C   0  0  0  0  0  0  0  0  0  0  0  0
    5.4680  -18.7990    6.7330 N   0  0  0  0  0  0  0  0  0  0  0  0
    4.9210  -12.0090    8.3610 C   0  0  2  0  0  0  0  0  0  0  0  0
    5.9180  -12.1540    7.5880 O   0  0  0  0  0  0  0  0  0  0  0  0
    5.1100  -10.9080    9.4000 C   0  0  0  0  0  0  0  0  0  0  0  0
    4.4400  -10.8540   10.4390 O   0  0  0  0  0  0  0  0  0  0  0  0
    6.0730   -9.9850    9.1250 N   0  0  0  0  0  0  0  0  0  0  0  0
    6.2970   -8.7920    9.9590 C   0  0  0  0  0  0  0  0  0  0  0  0
    7.6480   -8.3880    9.9950 C   0  0  0  0  0  0  0  0  0  0  0  0
    8.1530   -7.3620    9.1830 C   0  0  0  0  0  0  0  0  0  0  0  0
    9.4990   -6.9650    9.3260 C   0  0  0  0  0  0  0  0  0  0  0  0
   10.3110   -7.5850   10.2770 C   0  0  0  0  0  0  0  0  0  0  0  0
    9.8140   -8.5830   11.1100 C   0  0  0  0  0  0  0  0  0  0  0  0
    8.4820   -8.9380   10.9580 C   0  0  0  0  0  0  0  0  0  0  0  0
    3.4120   -6.8790   10.5130 C   0  0  0  0  0  0  0  0  0  0  0  0
    4.2230   -5.7360   10.6820 C   0  0  0  0  0  0  0  0  0  0  0  0
    4.7340   -5.0750    9.5640 C   0  0  0  0  0  0  0  0  0  0  0  0
    4.5060   -5.6040    8.2920 C   0  0  0  0  0  0  0  0  0  0  0  0
    3.7380   -6.7650    8.1270 C   0  0  0  0  0  0  0  0  0  0  0  0
    3.1760   -7.4060    9.2310 C   0  0  0  0  0  0  0  0  0  0  0  0
 36 37  2  0
 36 35  1  0
 37 38  1  0
 38 39  2  0
 39 40  1  0
 40 35  2  0
 35 34  1  0
 34 33  1  0
 33 31  1  0
 31 32  2  0
 31 29  1  0
 29 30  1  1
 29 23  1  0
 23 24  1  6
 23 22  1  0
 24 25  1  0
 25 26  1  0
 26 27  1  0
 27 28  1  0
 22 20  1  0
 20 21  2  0
 20  8  1  0
  8  9  1  0
  8  7  1  1
  9 10  1  0
 10 11  2  0
 10 12  1  0
 12 13  1  0
 13 14  1  0
 14 15  2  0
 14 19  1  0
 15 16  1  0
 16 17  2  0
 17 18  1  0
 18 19  2  0
  7  6  1  0
  6  4  1  0
  4  5  2  0
  4  3  1  0
  3  2  1  0
  2  1  1  0
  2 41  1  0
 41 42  2  0
 41 46  1  0
 42 43  1  0
 43 44  2  0
 44 45  1  0
 45 46  2  0
M  CHG  1  28   1
M  END
$$$$
