
     RDKit          3D

 37 42  0  0  0  0  0  0  0  0999 V2000
   91.1590   52.2880  271.4620 C   0  0  0  0  0  0  0  0  0  0  0  0
   92.2120   52.8510  270.6230 N   0  0  0  0  0  0  0  0  0  0  0  0
   92.7970   54.0390  270.8480 C   0  0  0  0  0  0  0  0  0  0  0  0
   93.7440   54.2230  269.9260 C   0  0  0  0  0  0  0  0  0  0  0  0
   93.7490   53.1110  269.1440 C   0  0  0  0  0  0  0  0  0  0  0  0
   94.4910   52.7780  268.0820 C   0  0  0  0  0  0  0  0  0  0  0  0
   94.3090   51.5610  267.4400 C   0  0  0  0  0  0  0  0  0  0  0  0
   93.3200   50.7040  267.8830 C   0  0  0  0  0  0  0  0  0  0  0  0
   93.0550   49.4640  267.2610 C   0  0  0  0  0  0  0  0  0  0  0  0
   91.7570   49.1810  266.8570 C   0  0  0  0  0  0  0  0  0  0  0  0
   91.4250   47.9690  266.2570 C   0  0  0  0  0  0  0  0  0  0  0  0
   90.1240   47.7630  265.9560 N   0  0  0  0  0  0  0  0  0  0  0  0
   89.7350   47.1240  264.8320 C   0  0  0  0  0  0  0  0  0  0  0  0
   90.5690   46.9520  263.7300 C   0  0  0  0  0  0  0  0  0  0  0  0
   90.1220   46.3200  262.5720 N   0  0  0  0  0  0  0  0  0  0  0  0
   88.8100   45.8620  262.5200 C   0  0  0  0  0  0  0  0  0  0  0  0
   87.9820   46.0260  263.6210 C   0  0  0  0  0  0  0  0  0  0  0  0
   88.4130   46.6480  264.7890 C   0  0  0  0  0  0  0  0  0  0  0  0
   87.5540   46.7510  265.9030 C   0  0  0  0  0  0  0  0  0  0  0  0
   87.7950   47.5400  266.8100 O   0  0  0  0  0  0  0  0  0  0  0  0
   86.5840   45.8300  266.0620 N   0  0  0  0  0  0  0  0  0  0  0  0
   85.7320   45.9400  267.2640 C   0  0  1  0  0  0  0  0  0  0  0  0
   84.4290   46.6210  266.9370 C   0  0  0  0  0  0  0  0  0  0  0  0
   83.4950   45.7050  266.1570 C   0  0  0  0  0  0  0  0  0  0  0  0
   83.2760   44.4370  266.9190 C   0  0  0  0  0  0  0  0  0  0  0  0
   84.5440   43.7620  267.2120 N   0  0  2  0  0  0  0  0  0  0  0  0
   84.3390   42.6180  268.1060 C   0  0  0  0  0  0  0  0  0  0  0  0
   85.5150   44.6040  267.8920 C   0  0  0  0  0  0  0  0  0  0  0  0
   92.4290   46.9930  266.0980 C   0  0  0  0  0  0  0  0  0  0  0  0
   93.7250   47.2720  266.5110 C   0  0  0  0  0  0  0  0  0  0  0  0
   94.7090   46.3490  266.3390 N   0  0  0  0  0  0  0  0  0  0  0  0
   96.0280   46.6270  266.7280 C   0  0  0  0  0  0  0  0  0  0  0  0
   96.3240   47.8470  267.3300 C   0  0  0  0  0  0  0  0  0  0  0  0
   95.3170   48.7770  267.4840 N   0  0  0  0  0  0  0  0  0  0  0  0
   94.0520   48.5140  267.0690 C   0  0  0  0  0  0  0  0  0  0  0  0
   92.5850   51.0930  268.9950 C   0  0  0  0  0  0  0  0  0  0  0  0
   92.7990   52.2690  269.5840 C   0  0  0  0  0  0  0  0  0  0  0  0
 23 24  1  0
 23 22  1  0
 24 25  1  0
 25 26  1  0
 26 27  1  1
 26 28  1  0
 28 22  1  0
 22 21  1  6
 21 19  1  0
 19 20  2  0
 19 18  1  0
 18 17  2  0
 18 13  1  0
 17 16  1  0
 16 15  2  0
 15 14  1  0
 14 13  2  0
 13 12  1  0
 12 11  1  0
 11 10  2  0
 11 29  1  0
 10  9  1  0
 29 30  2  0
 30 31  1  0
 30 35  1  0
 31 32  2  0
 32 33  1  0
 33 34  2  0
 34 35  1  0
 35  9  2  0
  9  8  1  0
  8 36  2  0
  8  7  1  0
 36 37  1  0
 37  2  1  0
 37  5  2  0
  2  1  1  0
  2  3  1  0
  3  4  2  0
  4  5  1  0
  5  6  1  0
  6  7  2  0
M  CHG  1  26   1
M  END
$$$$
