
     RDKit          3D

 36 41  0  0  0  0  0  0  0  0999 V2000
  142.1660  -36.3270  270.8020 C   0  0  0  0  0  0  0  0  0  0  0  0
  143.1840  -35.8440  269.9070 N   0  0  0  0  0  0  0  0  0  0  0  0
  143.7280  -34.6420  270.0160 C   0  0  0  0  0  0  0  0  0  0  0  0
  144.6140  -34.5090  269.0260 C   0  0  0  0  0  0  0  0  0  0  0  0
  144.5780  -35.6360  268.2930 C   0  0  0  0  0  0  0  0  0  0  0  0
  145.2690  -35.9920  267.2110 C   0  0  0  0  0  0  0  0  0  0  0  0
  145.0300  -37.2300  266.6480 C   0  0  0  0  0  0  0  0  0  0  0  0
  144.1090  -38.1210  267.2030 C   0  0  0  0  0  0  0  0  0  0  0  0
  143.8860  -39.4040  266.5850 C   0  0  0  0  0  0  0  0  0  0  0  0
  142.5940  -39.7790  266.1430 C   0  0  0  0  0  0  0  0  0  0  0  0
  142.3210  -40.9950  265.4870 C   0  0  0  0  0  0  0  0  0  0  0  0
  141.0350  -41.2860  265.1850 N   0  0  0  0  0  0  0  0  0  0  0  0
  140.6010  -41.7840  264.0070 C   0  0  0  0  0  0  0  0  0  0  0  0
  141.4340  -41.9740  262.8970 C   0  0  0  0  0  0  0  0  0  0  0  0
  140.9710  -42.4510  261.6970 N   0  0  0  0  0  0  0  0  0  0  0  0
  139.6260  -42.7310  261.5940 C   0  0  0  0  0  0  0  0  0  0  0  0
  138.7880  -42.5370  262.6940 C   0  0  0  0  0  0  0  0  0  0  0  0
  139.2330  -42.0600  263.9220 C   0  0  0  0  0  0  0  0  0  0  0  0
  138.3240  -41.8820  265.0100 C   0  0  0  0  0  0  0  0  0  0  0  0
  138.5800  -41.1550  265.9560 O   0  0  0  0  0  0  0  0  0  0  0  0
  137.2030  -42.6180  265.0330 N   0  0  0  0  0  0  0  0  0  0  0  0
  136.2160  -42.5300  266.0890 C   0  0  1  0  0  0  0  0  0  0  0  0
  134.8090  -42.6500  265.4880 C   0  0  0  0  0  0  0  0  0  0  0  0
  134.2660  -43.9930  265.9600 C   0  0  0  0  0  0  0  0  0  0  0  0
  135.4790  -44.7300  266.3090 N   0  0  2  0  0  0  0  0  0  0  0  0
  135.2440  -45.9610  267.1050 C   0  0  0  0  0  0  0  0  0  0  0  0
  136.3440  -43.7300  266.9690 C   0  0  0  0  0  0  0  0  0  0  0  0
  143.3740  -41.8940  265.3100 C   0  0  0  0  0  0  0  0  0  0  0  0
  144.6570  -41.5300  265.7150 C   0  0  0  0  0  0  0  0  0  0  0  0
  145.6660  -42.3940  265.5050 N   0  0  0  0  0  0  0  0  0  0  0  0
  146.9870  -42.1260  265.8580 C   0  0  0  0  0  0  0  0  0  0  0  0
  147.2520  -40.9350  266.5010 C   0  0  0  0  0  0  0  0  0  0  0  0
  146.1960  -40.0460  266.7290 N   0  0  0  0  0  0  0  0  0  0  0  0
  144.9270  -40.3190  266.3410 C   0  0  0  0  0  0  0  0  0  0  0  0
  143.4470  -37.6870  268.3560 C   0  0  0  0  0  0  0  0  0  0  0  0
  143.6880  -36.4770  268.8590 C   0  0  0  0  0  0  0  0  0  0  0  0
 23 24  1  0
 23 22  1  0
 24 25  1  0
 25 26  1  1
 25 27  1  0
 27 22  1  0
 22 21  1  6
 21 19  1  0
 19 20  2  0
 19 18  1  0
 18 17  2  0
 18 13  1  0
 17 16  1  0
 16 15  2  0
 15 14  1  0
 14 13  2  0
 13 12  1  0
 12 11  1  0
 11 10  2  0
 11 28  1  0
 10  9  1  0
 28 29  2  0
 29 30  1  0
 29 34  1  0
 30 31  2  0
 31 32  1  0
 32 33  2  0
 33 34  1  0
 34  9  2  0
  9  8  1  0
  8 35  2  0
  8  7  1  0
 35 36  1  0
 36  2  1  0
 36  5  2  0
  2  1  1  0
  2  3  1  0
  3  4  2  0
  4  5  1  0
  5  6  1  0
  6  7  2  0
M  CHG  1  25   1
M  END
$$$$
