
     RDKit          3D

 38 43  0  0  0  0  0  0  0  0999 V2000
   91.0151   52.8604  269.8016 C   0  0  0  0  0  0  0  0  0  0  0  0
   92.3857   52.9002  269.4015 N   0  0  0  0  0  0  0  0  0  0  0  0
   93.3459   53.7507  269.8580 C   0  0  0  0  0  0  0  0  0  0  0  0
   94.1996   53.9932  268.8944 C   0  0  0  0  0  0  0  0  0  0  0  0
   93.9272   53.1298  267.8774 C   0  0  0  0  0  0  0  0  0  0  0  0
   94.6036   52.8198  266.7658 C   0  0  0  0  0  0  0  0  0  0  0  0
   94.4343   51.6101  266.1914 C   0  0  0  0  0  0  0  0  0  0  0  0
   93.4668   50.7260  266.7186 C   0  0  0  0  0  0  0  0  0  0  0  0
   93.2211   49.4366  266.1370 C   0  0  0  0  0  0  0  0  0  0  0  0
   91.9789   49.1562  265.5953 C   0  0  0  0  0  0  0  0  0  0  0  0
   91.6865   47.8560  265.0733 C   0  0  0  0  0  0  0  0  0  0  0  0
   90.3554   47.5231  264.9827 N   0  0  0  0  0  0  0  0  0  0  0  0
   89.8972   46.2748  264.8888 C   0  0  0  0  0  0  0  0  0  0  0  0
   90.7938   45.1892  264.8231 C   0  0  0  0  0  0  0  0  0  0  0  0
   90.3192   43.9074  264.7483 C   0  0  0  0  0  0  0  0  0  0  0  0
   88.9473   43.6710  264.7655 C   0  0  0  0  0  0  0  0  0  0  0  0
   88.0921   44.7561  264.8703 C   0  0  0  0  0  0  0  0  0  0  0  0
   88.5574   46.0380  265.1218 C   0  0  0  0  0  0  0  0  0  0  0  0
   87.5176   47.0160  266.1980 S   0  0  1  0  0  0  0  0  0  0  0  0
   86.9431   46.1227  267.2631 O   0  0  0  0  0  0  0  0  0  0  0  0
   88.3345   48.0441  266.9165 O   0  0  0  0  0  0  0  0  0  0  0  0
   86.2803   47.7052  265.2690 N   0  0  0  0  0  0  0  0  0  0  0  0
   86.1647   47.0859  263.9328 C   0  0  0  0  0  0  0  0  0  0  0  0
   87.3429   47.0211  263.1531 C   0  0  0  0  0  0  0  0  0  0  0  0
   87.7815   45.7848  262.6653 C   0  0  0  0  0  0  0  0  0  0  0  0
   88.8712   45.6956  261.7404 N   0  0  0  0  0  0  0  0  0  0  0  0
   89.5643   46.8515  261.3313 C   0  0  0  0  0  0  0  0  0  0  0  0
   89.1695   48.0602  261.8578 N   0  0  0  0  0  0  0  0  0  0  0  0
   88.0649   48.1672  262.8042 C   0  0  0  0  0  0  0  0  0  0  0  0
   92.7546   46.9675  264.9600 C   0  0  0  0  0  0  0  0  0  0  0  0
   94.0036   47.2544  265.5168 C   0  0  0  0  0  0  0  0  0  0  0  0
   94.9945   46.3626  265.4391 N   0  0  0  0  0  0  0  0  0  0  0  0
   96.2797   46.6910  265.9276 C   0  0  0  0  0  0  0  0  0  0  0  0
   96.5362   47.9203  266.4996 C   0  0  0  0  0  0  0  0  0  0  0  0
   95.4731   48.7772  266.6047 N   0  0  0  0  0  0  0  0  0  0  0  0
   94.2289   48.4933  266.0934 C   0  0  0  0  0  0  0  0  0  0  0  0
   92.6558   51.1583  267.7508 C   0  0  0  0  0  0  0  0  0  0  0  0
   92.8643   52.3783  268.2976 C   0  0  0  0  0  0  0  0  0  0  0  0
 37 38  4  0
 37  8  4  0
 38  2  4  0
 38  5  4  0
  2  1  1  0
  2  3  4  0
  3  4  4  0
  4  5  4  0
  5  6  4  0
  6  7  4  0
  7  8  4  0
  8  9  1  0
  9 10  4  0
  9 36  4  0
 10 11  4  0
 36 35  4  0
 36 31  4  0
 35 34  4  0
 34 33  4  0
 33 32  4  0
 32 31  4  0
 31 30  4  0
 30 11  4  0
 11 12  1  0
 12 13  1  0
 13 14  4  0
 13 18  4  0
 14 15  4  0
 15 16  4  0
 16 17  4  0
 17 18  4  0
 18 19  1  0
 19 20  2  0
 19 21  2  0
 19 22  1  1
 22 23  1  0
 23 24  1  0
 24 25  4  0
 24 29  4  0
 25 26  4  0
 26 27  4  0
 27 28  4  0
 28 29  4  0
M  END
$$$$
