
     RDKit          3D

 36 41  0  0  0  0  0  0  0  0999 V2000
  140.2892  -36.6996  268.2375 C   0  0  0  0  0  0  0  0  0  0  0  0
  141.6007  -36.3464  267.6910 N   0  0  0  0  0  0  0  0  0  0  0  0
  142.3807  -35.3015  268.1823 C   0  0  0  0  0  0  0  0  0  0  0  0
  143.0725  -34.8052  267.1725 C   0  0  0  0  0  0  0  0  0  0  0  0
  142.8758  -35.5913  266.1257 C   0  0  0  0  0  0  0  0  0  0  0  0
  143.4617  -35.6169  264.9406 C   0  0  0  0  0  0  0  0  0  0  0  0
  143.4637  -36.7648  264.1528 C   0  0  0  0  0  0  0  0  0  0  0  0
  142.7907  -37.8991  264.6195 C   0  0  0  0  0  0  0  0  0  0  0  0
  142.7613  -39.0630  263.7773 C   0  0  0  0  0  0  0  0  0  0  0  0
  141.5041  -39.3331  263.1830 C   0  0  0  0  0  0  0  0  0  0  0  0
  141.1202  -40.6284  262.7639 C   0  0  0  0  0  0  0  0  0  0  0  0
  139.8628  -40.7439  262.3044 N   0  0  0  0  0  0  0  0  0  0  0  0
  139.5174  -41.2172  261.0895 C   0  0  0  0  0  0  0  0  0  0  0  0
  140.4951  -41.8525  260.2327 C   0  0  0  0  0  0  0  0  0  0  0  0
  140.1198  -42.6615  259.2188 N   0  0  0  0  0  0  0  0  0  0  0  0
  138.7735  -42.7836  258.9261 C   0  0  0  0  0  0  0  0  0  0  0  0
  137.8422  -42.0507  259.6402 C   0  0  0  0  0  0  0  0  0  0  0  0
  138.1480  -41.2879  260.7569 C   0  0  0  0  0  0  0  0  0  0  0  0
  137.1333  -40.7690  261.5787 C   0  0  0  0  0  0  0  0  0  0  0  0
  137.1041  -39.5475  261.8121 O   0  0  0  0  0  0  0  0  0  0  0  0
  136.5291  -41.6050  262.4043 N   0  0  0  0  0  0  0  0  0  0  0  0
  137.2227  -42.5998  263.0110 C   0  0  0  0  0  0  0  0  0  0  0  0
  137.0610  -43.8819  262.4727 C   0  0  0  0  0  0  0  0  0  0  0  0
  138.1365  -44.6836  262.3465 N   0  0  0  0  0  0  0  0  0  0  0  0
  139.3610  -44.3612  262.9474 C   0  0  0  0  0  0  0  0  0  0  0  0
  139.5042  -43.1520  263.6740 N   0  0  0  0  0  0  0  0  0  0  0  0
  138.3608  -42.3478  263.8739 C   0  0  0  0  0  0  0  0  0  0  0  0
  142.0378  -41.6752  262.9351 C   0  0  0  0  0  0  0  0  0  0  0  0
  143.3271  -41.3904  263.4034 C   0  0  0  0  0  0  0  0  0  0  0  0
  144.2310  -42.3547  263.3926 N   0  0  0  0  0  0  0  0  0  0  0  0
  145.6038  -42.0949  263.6524 C   0  0  0  0  0  0  0  0  0  0  0  0
  145.9764  -40.7911  263.9725 C   0  0  0  0  0  0  0  0  0  0  0  0
  145.0044  -39.7983  264.0841 N   0  0  0  0  0  0  0  0  0  0  0  0
  143.7228  -40.0693  263.7994 C   0  0  0  0  0  0  0  0  0  0  0  0
  142.1208  -37.7863  265.8453 C   0  0  0  0  0  0  0  0  0  0  0  0
  142.1052  -36.6309  266.5046 C   0  0  0  0  0  0  0  0  0  0  0  0
 35 36  4  0
 35  8  4  0
 36  2  4  0
 36  5  4  0
  2  1  1  0
  2  3  4  0
  3  4  4  0
  4  5  4  0
  5  6  4  0
  6  7  4  0
  7  8  4  0
  8  9  1  0
  9 10  4  0
  9 34  4  0
 10 11  4  0
 34 33  4  0
 34 29  4  0
 33 32  4  0
 32 31  4  0
 31 30  4  0
 30 29  4  0
 29 28  4  0
 28 11  4  0
 11 12  1  0
 12 13  1  0
 13 14  4  0
 13 18  4  0
 14 15  4  0
 15 16  4  0
 16 17  4  0
 17 18  4  0
 18 19  1  0
 19 20  2  0
 19 21  1  0
 21 22  1  0
 22 23  4  0
 22 27  4  0
 23 24  4  0
 24 25  4  0
 25 26  4  0
 26 27  4  0
M  END
$$$$
