
     RDKit          3D

 26 27  0  0  0  0  0  0  0  0999 V2000
   -0.2130   -7.2370  -15.9380 C   0  0  0  0  0  0  0  0  0  0  0  0
    0.8990   -7.2360  -16.9600 C   0  0  0  0  0  0  0  0  0  0  0  0
    1.7790   -6.3620  -17.0380 O   0  0  0  0  0  0  0  0  0  0  0  0
    0.9050   -8.2400  -17.8360 N   0  0  0  0  0  0  0  0  0  0  0  0
    2.0130   -8.4060  -18.7200 C   0  0  1  0  0  0  0  0  0  0  0  0
    2.6330   -9.8080  -18.4790 C   0  0  2  0  0  0  0  0  0  0  0  0
    3.2050   -9.6850  -17.1840 O   0  0  0  0  0  0  0  0  0  0  0  0
    3.7960  -10.0280  -19.2880 O   0  0  0  0  0  0  0  0  0  0  0  0
    3.4820   -9.9430  -20.7050 C   0  0  2  0  0  0  0  0  0  0  0  0
    4.7430  -10.2410  -21.4980 C   0  0  0  0  0  0  0  0  0  0  0  0
    5.2250  -11.4000  -20.8670 O   0  0  0  0  0  0  0  0  0  0  0  0
    2.7250   -8.6490  -21.0930 C   0  0  1  0  0  0  0  0  0  0  0  0
    2.2960   -8.7560  -22.4800 O   0  0  0  0  0  0  0  0  0  0  0  0
    1.5090   -8.3640  -20.1540 C   0  0  2  0  0  0  0  0  0  0  0  0
    0.8410   -7.0920  -20.4510 O   0  0  0  0  0  0  0  0  0  0  0  0
   -0.2780   -7.1890  -21.3160 C   0  0  2  0  0  0  0  0  0  0  0  0
    0.1130   -6.9940  -22.6610 O   0  0  0  0  0  0  0  0  0  0  0  0
   -0.9320   -6.7460  -23.6030 C   0  0  0  0  0  0  0  0  0  0  0  0
   -0.5200   -7.0320  -24.9870 C   0  0  0  0  0  0  0  0  0  0  0  0
    0.6770   -7.3030  -25.0940 O   0  0  0  0  0  0  0  0  0  0  0  0
   -1.3160   -7.0310  -25.9850 O   0  0  0  0  0  0  0  0  0  0  0  0
   -2.1250   -6.2660  -23.2120 C   0  0  0  0  0  0  0  0  0  0  0  0
   -2.4590   -6.1850  -21.7380 C   0  0  2  0  0  0  0  0  0  0  0  0
   -3.1770   -4.9510  -21.5820 O   0  0  0  0  0  0  0  0  0  0  0  0
   -1.1720   -6.0700  -20.9050 C   0  0  1  0  0  0  0  0  0  0  0  0
   -1.4170   -6.2860  -19.5170 O   0  0  0  0  0  0  0  0  0  0  0  0
 16 25  1  0
 16 17  1  0
 16 15  1  1
 25 23  1  0
 25 26  1  1
 23 22  1  0
 23 24  1  6
 18 22  2  0
 18 19  1  0
 17 18  1  0
 19 21  1  0
 19 20  2  0
  5  6  1  0
  6  7  1  1
  6  8  1  0
  5 14  1  0
  5  4  1  1
 14 12  1  0
 14 15  1  6
 12  9  1  0
 12 13  1  6
  9 10  1  6
  8  9  1  0
 10 11  1  0
  2  1  1  0
  2  4  1  0
  2  3  2  0
M  END
$$$$
