
     RDKit          3D

 26 27  0  0  0  0  0  0  0  0999 V2000
   -0.8147   -7.1331  -16.1436 C   0  0  0  0  0  0  0  0  0  0  0  0
    0.5758   -7.3841  -16.6565 C   0  0  0  0  0  0  0  0  0  0  0  0
    1.4870   -6.5396  -16.4647 O   0  0  0  0  0  0  0  0  0  0  0  0
    0.8248   -8.4680  -17.4244 N   0  0  0  0  0  0  0  0  0  0  0  0
    1.8028   -8.3948  -18.4505 C   0  0  1  0  0  0  0  0  0  0  0  0
    2.6506   -9.6518  -18.4420 C   0  0  2  0  0  0  0  0  0  0  0  0
    3.3891   -9.4917  -17.2590 O   0  0  0  0  0  0  0  0  0  0  0  0
    3.6951   -9.6558  -19.4203 O   0  0  0  0  0  0  0  0  0  0  0  0
    3.1341   -9.5318  -20.7841 C   0  0  2  0  0  0  0  0  0  0  0  0
    4.2666   -9.5858  -21.7645 C   0  0  0  0  0  0  0  0  0  0  0  0
    5.0094  -10.6720  -21.3481 O   0  0  0  0  0  0  0  0  0  0  0  0
    2.1009   -8.3734  -20.9324 C   0  0  2  0  0  0  0  0  0  0  0  0
    2.8805   -7.1127  -20.9867 O   0  0  0  0  0  0  0  0  0  0  0  0
    1.0446   -8.3717  -19.8053 C   0  0  2  0  0  0  0  0  0  0  0  0
    0.1446   -7.2064  -19.9146 O   0  0  0  0  0  0  0  0  0  0  0  0
   -0.7110   -7.1763  -20.9876 C   0  0  2  0  0  0  0  0  0  0  0  0
    0.0135   -7.1299  -22.2200 O   0  0  0  0  0  0  0  0  0  0  0  0
   -0.7679   -6.8572  -23.3990 C   0  0  0  0  0  0  0  0  0  0  0  0
    0.0059   -7.0648  -24.6253 C   0  0  0  0  0  0  0  0  0  0  0  0
   -0.7026   -7.0025  -25.6469 O   0  0  0  0  0  0  0  0  0  0  0  0
    1.2704   -7.0498  -24.6852 O   0  0  0  0  0  0  0  0  0  0  0  0
   -1.9003   -6.1622  -23.3105 C   0  0  0  0  0  0  0  0  0  0  0  0
   -2.6018   -5.9335  -22.0048 C   0  0  1  0  0  0  0  0  0  0  0  0
   -3.4234   -7.0551  -21.7398 O   0  0  0  0  0  0  0  0  0  0  0  0
   -1.5155   -5.9146  -20.8430 C   0  0  1  0  0  0  0  0  0  0  0  0
   -2.1008   -5.9774  -19.5839 O   0  0  0  0  0  0  0  0  0  0  0  0
 16 25  1  0
 16 17  1  0
 16 15  1  1
 25 23  1  0
 25 26  1  1
 23 22  1  0
 23 24  1  6
 18 22  2  0
 18 19  1  0
 17 18  1  0
 19 21  1  0
 19 20  2  0
  5  6  1  0
  6  7  1  1
  6  8  1  0
  5 14  1  0
  5  4  1  1
 14 12  1  0
 14 15  1  1
 12  9  1  0
 12 13  1  6
  9 10  1  6
  8  9  1  0
 10 11  1  0
  2  1  1  0
  2  4  1  0
  2  3  2  0
M  END
$$$$
