
     RDKit          3D

 17 18  0  0  0  0  0  0  0  0999 V2000
   15.0980   15.5160   74.3370 C   0  0  0  0  0  0  0  0  0  0  0  0
   15.1950   16.3050   75.5100 N   0  0  0  0  0  0  0  0  0  0  0  0
   15.2390   17.7140   75.1540 C   0  0  0  0  0  0  0  0  0  0  0  0
   14.7870   18.6470   76.2690 C   0  0  1  0  0  0  0  0  0  0  0  0
   15.7990   18.6420   77.2090 O   0  0  0  0  0  0  0  0  0  0  0  0
   14.5640   20.1110   75.7380 C   0  0  0  0  0  0  0  0  0  0  0  0
   14.0270   20.9250   76.6630 N   0  0  1  0  0  0  0  0  0  0  0  0
   14.4200   22.2410   76.5090 C   0  0  0  0  0  0  0  0  0  0  0  0
   13.5610   23.2550   77.2860 C   0  0  0  0  0  0  0  0  0  0  0  0
   12.3940   23.8270   76.4700 C   0  0  0  0  0  0  0  0  0  0  0  0
   11.6970   22.8340   75.4650 C   0  0  0  0  0  0  0  0  0  0  0  0
   10.8930   23.3850   74.3850 C   0  0  0  0  0  0  0  0  0  0  0  0
   10.2390   22.5470   73.4550 C   0  0  0  0  0  0  0  0  0  0  0  0
   10.3540   21.1460   73.5690 C   0  0  0  0  0  0  0  0  0  0  0  0
   11.1500   20.5950   74.6340 C   0  0  0  0  0  0  0  0  0  0  0  0
   11.8160   21.4370   75.5780 C   0  0  0  0  0  0  0  0  0  0  0  0
   12.6620   20.7820   76.7330 C   0  0  0  0  0  0  0  0  0  0  0  0
  4  3  1  0
  6  4  1  0
  4  5  1  1
  3  2  1  0
  2  1  1  0
  7  6  1  6
 17 16  1  0
 17  7  1  0
 16 15  2  0
 16 11  1  0
 15 14  1  0
 14 13  2  0
 13 12  1  0
 12 11  2  0
 11 10  1  0
 10  9  1  0
  9  8  1  0
  8  7  1  0
M  CHG  2   2   1   7   1
M  END
$$$$
