
     RDKit          3D

 22 22  0  0  0  0  0  0  0  0999 V2000
   23.7231  232.2098   29.6380 C   0  0  0  0  0  0  0  0  0  0  0  0
   25.2349  231.9233   29.6598 C   0  0  0  0  0  0  0  0  0  0  0  0
   26.1094  232.5316   28.8131 C   0  0  0  0  0  0  0  0  0  0  0  0
   27.4556  232.1308   28.7818 C   0  0  0  0  0  0  0  0  0  0  0  0
   27.9161  231.2716   29.7579 C   0  0  0  0  0  0  0  0  0  0  0  0
   29.3848  231.3255   30.2024 C   0  0  0  0  0  0  0  0  0  0  0  0
   30.0332  230.0631   29.7359 C   0  0  0  0  0  0  0  0  0  0  0  0
   29.6909  228.8677   30.1881 C   0  0  0  0  0  0  0  0  0  0  0  0
   29.5647  227.5972   29.3832 C   0  0  0  0  0  0  0  0  0  0  0  0
   30.1114  226.4592   30.0073 O   0  0  0  0  0  0  0  0  0  0  0  0
   29.8505  226.3005   31.6208 P   0  0  2  0  0  0  0  0  0  0  0  0
   28.4257  226.0006   31.9524 O   0  0  0  0  0  0  0  0  0  0  0  0
   30.4662  227.4544   32.4798 O   0  0  0  0  0  0  0  0  0  0  0  0
   30.6882  225.0032   31.9973 O   0  0  0  0  0  0  0  0  0  0  0  0
   30.8185  223.7149   31.0430 P   0  0  2  0  0  0  0  0  0  0  0  0
   29.4266  223.3821   30.6609 O   0  0  0  0  0  0  0  0  0  0  0  0
   31.3328  222.5970   31.8763 O   0  0  0  0  0  0  0  0  0  0  0  0
   31.7413  223.8090   29.7055 O   0  0  0  0  0  0  0  0  0  0  0  0
   31.2285  230.1571   28.7368 C   0  0  0  0  0  0  0  0  0  0  0  0
   32.3548  229.7248   29.3885 O   0  0  0  0  0  0  0  0  0  0  0  0
   27.0275  230.5619   30.5133 C   0  0  0  0  0  0  0  0  0  0  0  0
   25.6739  230.9403   30.5427 C   0  0  0  0  0  0  0  0  0  0  0  0
 20 19  1  0
 19  7  1  0
  7  8  2  0
  7  6  1  0
  8  9  1  0
  6  5  1  0
  5  4  4  0
  5 21  4  0
  4  3  4  0
  3  2  4  0
  2 22  4  0
  2  1  1  0
 22 21  4  0
  9 10  1  0
 10 11  1  0
 11 14  1  0
 11 12  2  0
 11 13  1  6
 14 15  1  0
 15 17  1  6
 15 16  2  0
 15 18  1  0
M  END
$$$$
