
     RDKit          3D

 22 22  0  0  0  0  0  0  0  0999 V2000
   30.7270  233.3600   36.0750 C   0  0  0  0  0  0  0  0  0  0  0  0
   30.0880  232.7770   34.8120 C   0  0  0  0  0  0  0  0  0  0  0  0
   29.5530  231.4910   34.8320 C   0  0  0  0  0  0  0  0  0  0  0  0
   28.9180  230.9970   33.6950 C   0  0  0  0  0  0  0  0  0  0  0  0
   28.8930  231.7570   32.5390 C   0  0  0  0  0  0  0  0  0  0  0  0
   28.2950  231.1950   31.2700 C   0  0  0  0  0  0  0  0  0  0  0  0
   29.4860  230.7450   30.4240 C   0  0  0  0  0  0  0  0  0  0  0  0
   29.8570  229.4810   30.3180 C   0  0  0  0  0  0  0  0  0  0  0  0
   29.1640  228.3100   31.0340 C   0  0  0  0  0  0  0  0  0  0  0  0
   28.3900  227.5520   30.1600 O   0  0  0  0  0  0  0  0  0  0  0  0
   27.5780  226.2460   30.7590 P   0  0  1  0  0  0  0  0  0  0  0  0
   26.5230  226.6570   31.7370 O   0  0  0  0  0  0  0  0  0  0  0  0
   27.0900  225.2960   29.6820 O   0  0  0  0  0  0  0  0  0  0  0  0
   28.6940  225.4490   31.6110 O   0  0  0  0  0  0  0  0  0  0  0  0
   29.9040  224.6220   30.8940 P   0  0  1  0  0  0  0  0  0  0  0  0
   31.0910  224.8670   31.7050 O   0  0  0  0  0  0  0  0  0  0  0  0
   29.5060  223.2230   31.0230 O   0  0  0  0  0  0  0  0  0  0  0  0
   30.1670  224.9530   29.3160 O   0  0  0  0  0  0  0  0  0  0  0  0
   30.3070  231.8390   29.7590 C   0  0  0  0  0  0  0  0  0  0  0  0
   31.0710  231.3760   28.7000 O   0  0  0  0  0  0  0  0  0  0  0  0
   29.4080  233.0400   32.5290 C   0  0  0  0  0  0  0  0  0  0  0  0
   30.0040  233.5570   33.6720 C   0  0  0  0  0  0  0  0  0  0  0  0
 20 19  1  0
 19  7  1  0
  7  8  2  0
  7  6  1  0
  8  9  1  0
  6  5  1  0
  5  4  2  0
  5 21  1  0
  4  3  1  0
  3  2  2  0
  2 22  1  0
  2  1  1  0
 22 21  2  0
  9 10  1  0
 10 11  1  0
 11 14  1  0
 11 12  2  0
 11 13  1  6
 14 15  1  0
 15 17  1  6
 15 16  2  0
 15 18  1  0
M  END
$$$$
