
     RDKit          3D

 23 24  0  0  0  0  0  0  0  0999 V2000
   -3.4423  -34.5296  -16.0373 O   0  0  0  0  0  0  0  0  0  0  0  0
   -3.7226  -34.2097  -14.6186 C   0  0  0  0  0  0  0  0  0  0  0  0
   -4.4050  -35.3711  -13.9008 C   0  0  1  0  0  0  0  0  0  0  0  0
   -5.2259  -34.8256  -12.8745 O   0  0  0  0  0  0  0  0  0  0  0  0
   -6.3043  -33.9884  -13.4210 C   0  0  1  0  0  0  0  0  0  0  0  0
   -5.6671  -32.9760  -14.2503 O   0  0  0  0  0  0  0  0  0  0  0  0
   -6.3111  -31.6980  -14.0423 C   0  0  1  0  0  0  0  0  0  0  0  0
   -5.3757  -30.6254  -14.4660 O   0  0  0  0  0  0  0  0  0  0  0  0
   -5.0237  -30.7694  -15.8383 C   0  0  2  0  0  0  0  0  0  0  0  0
   -4.0811  -29.6093  -16.1743 C   0  0  0  0  0  0  0  0  0  0  0  0
   -2.7935  -30.1624  -16.3186 O   0  0  0  0  0  0  0  0  0  0  0  0
   -6.2629  -30.5726  -16.6933 C   0  0  1  0  0  0  0  0  0  0  0  0
   -5.8867  -30.7315  -18.0813 O   0  0  0  0  0  0  0  0  0  0  0  0
   -7.2981  -31.6528  -16.3592 C   0  0  2  0  0  0  0  0  0  0  0  0
   -8.4796  -31.4479  -17.1401 O   0  0  0  0  0  0  0  0  0  0  0  0
   -7.5597  -31.6441  -14.8865 C   0  0  1  0  0  0  0  0  0  0  0  0
   -8.4681  -32.6428  -14.5044 O   0  0  0  0  0  0  0  0  0  0  0  0
   -7.1921  -34.8086  -14.3368 C   0  0  1  0  0  0  0  0  0  0  0  0
   -8.1700  -34.0431  -14.9580 O   0  0  0  0  0  0  0  0  0  0  0  0
   -6.3349  -35.4385  -15.4763 C   0  0  2  0  0  0  0  0  0  0  0  0
   -7.1304  -36.3653  -16.2616 O   0  0  0  0  0  0  0  0  0  0  0  0
   -5.2128  -36.2393  -14.8417 C   0  0  2  0  0  0  0  0  0  0  0  0
   -5.7613  -37.4491  -14.1781 O   0  0  0  0  0  0  0  0  0  0  0  0
  5 18  1  0
  5  6  1  1
  5  4  1  0
 18 20  1  0
 18 19  1  1
 20 22  1  0
 20 21  1  6
  3 22  1  0
 22 23  1  1
  3  2  1  6
  4  3  1  0
  2  1  1  0
  7  6  1  6
  7 16  1  0
  8  7  1  0
 14 16  1  0
 16 17  1  6
 12 14  1  0
 14 15  1  6
  9 12  1  0
 12 13  1  6
  9 10  1  6
  9  8  1  0
 11 10  1  0
M  END
$$$$
