
     RDKit          3D

 23 24  0  0  0  0  0  0  0  0999 V2000
   -4.7667  -28.8851  -13.0928 O   0  0  0  0  0  0  0  0  0  0  0  0
   -5.9653  -28.5211  -13.7397 C   0  0  0  0  0  0  0  0  0  0  0  0
   -6.4846  -29.5264  -14.7965 C   0  0  1  0  0  0  0  0  0  0  0  0
   -5.9116  -30.8007  -14.4279 O   0  0  0  0  0  0  0  0  0  0  0  0
   -6.3619  -31.9030  -15.2177 C   0  0  1  0  0  0  0  0  0  0  0  0
   -5.8474  -33.2069  -14.8542 O   0  0  0  0  0  0  0  0  0  0  0  0
   -5.0346  -33.9161  -15.7505 C   0  0  1  0  0  0  0  0  0  0  0  0
   -4.0400  -33.0812  -16.5197 C   0  0  0  0  0  0  0  0  0  0  0  0
   -4.2601  -33.2309  -17.9206 O   0  0  0  0  0  0  0  0  0  0  0  0
   -4.4347  -34.9461  -14.9790 O   0  0  0  0  0  0  0  0  0  0  0  0
   -4.9592  -36.2468  -15.3453 C   0  0  2  0  0  0  0  0  0  0  0  0
   -3.9915  -36.8871  -16.2240 C   0  0  0  0  0  0  0  0  0  0  0  0
   -2.6281  -36.5232  -16.1046 O   0  0  0  0  0  0  0  0  0  0  0  0
   -6.3055  -35.9930  -15.9719 C   0  0  1  0  0  0  0  0  0  0  0  0
   -7.3693  -35.7776  -14.9928 O   0  0  0  0  0  0  0  0  0  0  0  0
   -5.9961  -34.7314  -16.7607 C   0  0  1  0  0  0  0  0  0  0  0  0
   -7.0665  -34.0444  -17.4066 O   0  0  0  0  0  0  0  0  0  0  0  0
   -7.8923  -31.9579  -15.2815 C   0  0  1  0  0  0  0  0  0  0  0  0
   -8.4375  -32.3555  -14.0679 O   0  0  0  0  0  0  0  0  0  0  0  0
   -8.4904  -30.6601  -15.7267 C   0  0  1  0  0  0  0  0  0  0  0  0
   -9.9270  -30.7479  -15.6476 O   0  0  0  0  0  0  0  0  0  0  0  0
   -7.9873  -29.5847  -14.7197 C   0  0  2  0  0  0  0  0  0  0  0  0
   -8.5816  -28.2752  -15.0544 O   0  0  0  0  0  0  0  0  0  0  0  0
  5 18  1  0
  5  6  1  6
  5  4  1  0
 18 20  1  0
 18 19  1  6
 20 22  1  0
 20 21  1  1
  3 22  1  0
 22 23  1  6
  3  2  1  1
  4  3  1  0
  2  1  1  0
  7  6  1  0
  7  8  1  1
  8  9  1  0
  7 16  1  0
 10  7  1  0
 14 16  1  0
 16 17  1  6
 11 14  1  0
 14 15  1  1
 11 12  1  6
 11 10  1  0
 13 12  1  0
M  END
$$$$
