
     RDKit          3D

 23 24  0  0  0  0  0  0  0  0999 V2000
   -4.2340  -28.9540  -15.6010 O   0  0  0  0  0  0  0  0  0  0  0  0
   -5.4430  -28.7400  -14.8250 C   0  0  0  0  0  0  0  0  0  0  0  0
   -6.2840  -30.0180  -14.7300 C   0  0  1  0  0  0  0  0  0  0  0  0
   -5.5580  -31.0000  -14.0170 O   0  0  0  0  0  0  0  0  0  0  0  0
   -6.2530  -32.2160  -13.7120 C   0  0  2  0  0  0  0  0  0  0  0  0
   -6.6390  -32.9570  -14.8460 O   0  0  0  0  0  0  0  0  0  0  0  0
   -5.7210  -33.9440  -15.3300 C   0  0  2  0  0  0  0  0  0  0  0  0
   -5.9750  -34.1510  -16.8110 C   0  0  1  0  0  0  0  0  0  0  0  0
   -5.5870  -32.9630  -17.6870 C   0  0  0  0  0  0  0  0  0  0  0  0
   -4.1900  -32.6960  -17.6010 O   0  0  0  0  0  0  0  0  0  0  0  0
   -5.2110  -35.2450  -17.2940 O   0  0  0  0  0  0  0  0  0  0  0  0
   -5.4100  -36.5510  -16.6470 C   0  0  2  0  0  0  0  0  0  0  0  0
   -6.7050  -36.9390  -16.7890 O   0  0  0  0  0  0  0  0  0  0  0  0
   -5.1080  -36.3770  -15.1770 C   0  0  2  0  0  0  0  0  0  0  0  0
   -5.3500  -37.6380  -14.4950 O   0  0  0  0  0  0  0  0  0  0  0  0
   -5.8580  -35.2610  -14.5330 C   0  0  1  0  0  0  0  0  0  0  0  0
   -5.3620  -35.1670  -13.1880 O   0  0  0  0  0  0  0  0  0  0  0  0
   -7.5990  -31.9080  -13.0220 C   0  0  2  0  0  0  0  0  0  0  0  0
   -8.3780  -33.0740  -12.9200 O   0  0  0  0  0  0  0  0  0  0  0  0
   -8.4420  -30.8730  -13.7990 C   0  0  1  0  0  0  0  0  0  0  0  0
   -9.6080  -30.5500  -13.0210 O   0  0  0  0  0  0  0  0  0  0  0  0
   -7.6070  -29.6330  -14.0220 C   0  0  2  0  0  0  0  0  0  0  0  0
   -8.3830  -28.6790  -14.7520 O   0  0  0  0  0  0  0  0  0  0  0  0
  5 18  1  0
  5  6  1  6
  5  4  1  0
 18 20  1  0
 18 19  1  6
 20 22  1  0
 20 21  1  1
  3 22  1  0
 22 23  1  6
  3  2  1  1
  4  3  1  0
  2  1  1  0
  7  6  1  1
 12 14  1  0
 12 13  1  1
 11 12  1  0
 16 14  1  0
 14 15  1  1
  7 16  1  0
 16 17  1  1
  8  7  1  0
  8  9  1  6
  8 11  1  0
 10  9  1  0
M  END
$$$$
