
     RDKit          3D

 23 24  0  0  0  0  0  0  0  0999 V2000
   -4.7760  -29.5270  -15.9820 O   0  0  0  0  0  0  0  0  0  0  0  0
   -5.9770  -29.2520  -15.2050 C   0  0  0  0  0  0  0  0  0  0  0  0
   -6.8510  -30.4520  -14.9520 C   0  0  1  0  0  0  0  0  0  0  0  0
   -6.1240  -31.3980  -14.1520 O   0  0  0  0  0  0  0  0  0  0  0  0
   -6.8400  -32.5850  -13.8070 C   0  0  2  0  0  0  0  0  0  0  0  0
   -7.0530  -33.5110  -14.8980 O   0  0  0  0  0  0  0  0  0  0  0  0
   -5.9730  -34.2880  -15.3880 C   0  0  2  0  0  0  0  0  0  0  0  0
   -4.7230  -33.3820  -15.6480 C   0  0  0  0  0  0  0  0  0  0  0  0
   -3.7180  -34.1580  -16.3070 O   0  0  0  0  0  0  0  0  0  0  0  0
   -6.4420  -34.7490  -16.6310 O   0  0  0  0  0  0  0  0  0  0  0  0
   -6.4970  -36.1980  -16.5810 C   0  0  2  0  0  0  0  0  0  0  0  0
   -7.7230  -36.5940  -17.3350 C   0  0  0  0  0  0  0  0  0  0  0  0
   -7.5670  -36.5250  -18.7600 O   0  0  0  0  0  0  0  0  0  0  0  0
   -6.6110  -36.5400  -15.0850 C   0  0  1  0  0  0  0  0  0  0  0  0
   -6.3970  -37.9100  -14.7380 O   0  0  0  0  0  0  0  0  0  0  0  0
   -5.6090  -35.5460  -14.5450 C   0  0  2  0  0  0  0  0  0  0  0  0
   -5.6980  -35.3800  -13.1440 O   0  0  0  0  0  0  0  0  0  0  0  0
   -8.1780  -32.2330  -13.1380 C   0  0  2  0  0  0  0  0  0  0  0  0
   -8.9850  -33.4060  -12.9800 O   0  0  0  0  0  0  0  0  0  0  0  0
   -9.0420  -31.2970  -14.0060 C   0  0  1  0  0  0  0  0  0  0  0  0
  -10.2100  -30.9000  -13.2910 O   0  0  0  0  0  0  0  0  0  0  0  0
   -8.2160  -30.0500  -14.3170 C   0  0  2  0  0  0  0  0  0  0  0  0
   -8.9140  -29.0680  -15.1010 O   0  0  0  0  0  0  0  0  0  0  0  0
  5 18  1  0
  5  6  1  6
  5  4  1  0
 18 20  1  0
 18 19  1  6
 20 22  1  0
 20 21  1  1
  3 22  1  0
 22 23  1  6
  3  2  1  1
  4  3  1  0
  2  1  1  0
  7  6  1  0
  7  8  1  6
  8  9  1  0
  7 16  1  0
 10  7  1  0
 14 16  1  0
 16 17  1  1
 11 14  1  0
 14 15  1  6
 11 12  1  6
 11 10  1  0
 13 12  1  0
M  END
$$$$
