
     RDKit          3D

 12 12  0  0  0  0  0  0  0  0999 V2000
   -4.4340  -28.9560  -15.8440 O   0  0  0  0  0  0  0  0  0  0  0  0
   -5.6010  -28.7430  -15.0220 C   0  0  0  0  0  0  0  0  0  0  0  0
   -6.4980  -29.9690  -14.9340 C   0  0  1  0  0  0  0  0  0  0  0  0
   -5.8050  -30.9780  -14.2430 O   0  0  0  0  0  0  0  0  0  0  0  0
   -6.5250  -32.2090  -14.0660 C   0  0  2  0  0  0  0  0  0  0  0  0
   -6.8680  -32.8100  -15.2890 O   0  0  0  0  0  0  0  0  0  0  0  0
   -7.7860  -31.9190  -13.2750 C   0  0  2  0  0  0  0  0  0  0  0  0
   -8.5220  -33.1440  -13.1360 O   0  0  0  0  0  0  0  0  0  0  0  0
   -8.6230  -30.8860  -14.0070 C   0  0  1  0  0  0  0  0  0  0  0  0
   -9.7890  -30.6020  -13.2120 O   0  0  0  0  0  0  0  0  0  0  0  0
   -7.7890  -29.6290  -14.1910 C   0  0  2  0  0  0  0  0  0  0  0  0
   -8.5470  -28.6900  -14.9470 O   0  0  0  0  0  0  0  0  0  0  0  0
  5  7  1  0
  5  6  1  6
  4  5  1  0
  9  7  1  0
  7  8  1  6
 11  9  1  0
  9 10  1  1
  3 11  1  0
 11 12  1  6
  3  2  1  1
  3  4  1  0
  1  2  1  0
M  END
$$$$
