
     RDKit          3D

 23 24  0  0  0  0  0  0  0  0999 V2000
   -2.5590  -33.2191  -15.4653 O   0  0  0  0  0  0  0  0  0  0  0  0
   -3.1674  -34.5351  -15.4765 C   0  0  0  0  0  0  0  0  0  0  0  0
   -4.6789  -34.4963  -15.4296 C   0  0  2  0  0  0  0  0  0  0  0  0
   -5.0444  -34.0788  -14.1071 O   0  0  0  0  0  0  0  0  0  0  0  0
   -6.4645  -33.8822  -13.9535 C   0  0  1  0  0  0  0  0  0  0  0  0
   -6.9400  -32.8455  -14.8011 O   0  0  0  0  0  0  0  0  0  0  0  0
   -7.1419  -31.6247  -14.1184 C   0  0  1  0  0  0  0  0  0  0  0  0
   -5.8687  -31.0754  -13.8273 O   0  0  0  0  0  0  0  0  0  0  0  0
   -5.1902  -30.4341  -14.9087 C   0  0  2  0  0  0  0  0  0  0  0  0
   -4.3236  -29.1348  -14.4647 C   0  0  0  0  0  0  0  0  0  0  0  0
   -3.0573  -29.6555  -14.6259 O   0  0  0  0  0  0  0  0  0  0  0  0
   -5.9798  -30.0429  -16.1047 C   0  0  1  0  0  0  0  0  0  0  0  0
   -5.9749  -31.0790  -17.0025 O   0  0  0  0  0  0  0  0  0  0  0  0
   -7.4244  -29.7017  -15.7572 C   0  0  1  0  0  0  0  0  0  0  0  0
   -8.1631  -29.5449  -16.9706 O   0  0  0  0  0  0  0  0  0  0  0  0
   -8.0441  -30.7793  -14.9408 C   0  0  2  0  0  0  0  0  0  0  0  0
   -9.1818  -30.2434  -14.1858 O   0  0  0  0  0  0  0  0  0  0  0  0
   -7.2025  -35.2357  -14.2871 C   0  0  1  0  0  0  0  0  0  0  0  0
   -8.6004  -35.0351  -14.2003 O   0  0  0  0  0  0  0  0  0  0  0  0
   -6.7553  -35.7526  -15.6659 C   0  0  2  0  0  0  0  0  0  0  0  0
   -7.4218  -37.0483  -15.8948 O   0  0  0  0  0  0  0  0  0  0  0  0
   -5.2461  -35.8600  -15.7765 C   0  0  2  0  0  0  0  0  0  0  0  0
   -4.7622  -36.8859  -14.8378 O   0  0  0  0  0  0  0  0  0  0  0  0
  5 18  1  0
  5  6  1  1
  5  4  1  0
 18 20  1  0
 18 19  1  1
 20 22  1  0
 20 21  1  6
  3 22  1  0
 22 23  1  1
  3  2  1  6
  4  3  1  0
  2  1  1  0
  7  6  1  6
  7 16  1  0
  8  7  1  0
 14 16  1  0
 16 17  1  6
 12 14  1  0
 14 15  1  1
  9 12  1  0
 12 13  1  6
  9 10  1  1
  9  8  1  0
 11 10  1  0
M  END
$$$$
