
     RDKit          3D

 12 12  0  0  0  0  0  0  0  0999 V2000
   -5.5909  -37.1494  -15.3210 O   0  0  0  0  0  0  0  0  0  0  0  0
   -5.1289  -35.8555  -14.9599 C   0  0  0  0  0  0  0  0  0  0  0  0
   -5.8953  -34.6942  -15.4329 C   0  0  2  0  0  0  0  0  0  0  0  0
   -5.0159  -33.7683  -16.0653 O   0  0  0  0  0  0  0  0  0  0  0  0
   -5.6084  -32.6084  -16.5983 C   0  0  2  0  0  0  0  0  0  0  0  0
   -4.6092  -31.6998  -16.9669 O   0  0  0  0  0  0  0  0  0  0  0  0
   -6.4729  -31.8419  -15.5691 C   0  0  1  0  0  0  0  0  0  0  0  0
   -7.1841  -30.7639  -16.1733 O   0  0  0  0  0  0  0  0  0  0  0  0
   -7.4968  -32.7572  -15.0112 C   0  0  2  0  0  0  0  0  0  0  0  0
   -8.2714  -32.1458  -13.9388 O   0  0  0  0  0  0  0  0  0  0  0  0
   -6.7583  -33.9987  -14.4243 C   0  0  1  0  0  0  0  0  0  0  0  0
   -7.7285  -34.8940  -13.8591 O   0  0  0  0  0  0  0  0  0  0  0  0
  5  7  1  0
  5  6  1  1
  4  5  1  0
  9  7  1  0
  7  8  1  1
 11  9  1  0
  9 10  1  6
  3 11  1  0
 11 12  1  1
  3  2  1  6
  3  4  1  0
  1  2  1  0
M  END
$$$$
