
     RDKit          3D

 26 29  0  0  0  0  0  0  0  0999 V2000
  -66.5340   32.3190  -20.7200 O   0  0  0  0  0  0  0  0  0  0  0  0
  -66.5820   31.8750  -21.8770 C   0  0  0  0  0  0  0  0  0  0  0  0
  -67.6430   31.7370  -22.5200 O   0  0  0  0  0  0  0  0  0  0  0  0
  -65.3160   31.3910  -22.4620 C   0  0  0  0  0  0  0  0  0  0  0  0
  -65.1900   31.1550  -23.8600 C   0  0  0  0  0  0  0  0  0  0  0  0
  -63.9380   30.6740  -24.3360 C   0  0  0  0  0  0  0  0  0  0  0  0
  -62.8750   30.3970  -23.4610 C   0  0  0  0  0  0  0  0  0  0  0  0
  -61.6280   29.8600  -24.0190 C   0  0  0  0  0  0  0  0  0  0  0  0
  -60.5190   30.2770  -23.6320 O   0  0  0  0  0  0  0  0  0  0  0  0
  -61.7390   28.8430  -24.9120 N   0  0  0  0  0  0  0  0  0  0  0  0
  -62.9770   28.1780  -25.3750 C   0  0  0  0  0  0  0  0  0  0  0  0
  -63.1330   28.4160  -26.8770 C   0  0  0  0  0  0  0  0  0  0  0  0
  -61.7800   28.3060  -27.5890 C   0  0  0  0  0  0  0  0  0  0  0  0
  -60.5920   28.2140  -26.9310 C   0  0  0  0  0  0  0  0  0  0  0  0
  -59.3270   28.0620  -27.6360 C   0  0  0  0  0  0  0  0  0  0  0  0
  -58.2750   27.9860  -27.0310 O   0  0  0  0  0  0  0  0  0  0  0  0
  -59.3770   28.0210  -29.0110 O   0  0  0  0  0  0  0  0  0  0  0  0
  -60.5480   28.1190  -29.7150 C   0  0  0  0  0  0  0  0  0  0  0  0
  -60.4570   28.0550  -31.1100 C   0  0  0  0  0  0  0  0  0  0  0  0
  -61.6400   28.1500  -31.8410 C   0  0  0  0  0  0  0  0  0  0  0  0
  -62.8860   28.2660  -31.1980 C   0  0  0  0  0  0  0  0  0  0  0  0
  -62.9900   28.3330  -29.7870 C   0  0  0  0  0  0  0  0  0  0  0  0
  -61.7890   28.2470  -29.0530 C   0  0  0  0  0  0  0  0  0  0  0  0
  -60.4620   28.2860  -25.4540 C   0  0  0  0  0  0  0  0  0  0  0  0
  -63.0170   30.6040  -22.0650 C   0  0  0  0  0  0  0  0  0  0  0  0
  -64.2500   31.0810  -21.5810 C   0  0  0  0  0  0  0  0  0  0  0  0
  4  2  1  0
  2  3  1  0
  2  1  2  0
 13 23  1  0
 23 18  1  0
 23 22  2  0
 21 20  2  0
 22 21  1  0
 19 20  1  0
 18 19  2  0
  5  4  2  0
  6  5  1  0
  7 25  1  0
  8  7  1  0
  7  6  2  0
 25 26  2  0
 26  4  1  0
  8  9  2  0
 10  8  1  0
 13 12  1  0
 14 13  2  0
 12 11  1  0
 24 14  1  0
 14 15  1  0
 24 10  1  0
 11 10  1  0
 15 16  2  0
 15 17  1  0
 17 18  1  0
M  END
$$$$
