
     RDKit          3D

 26 29  0  0  0  0  0  0  0  0999 V2000
  -65.6603   30.8210  -32.7976 O   0  0  0  0  0  0  0  0  0  0  0  0
  -65.4398   29.6971  -32.2727 C   0  0  0  0  0  0  0  0  0  0  0  0
  -65.3365   29.5892  -31.0208 O   0  0  0  0  0  0  0  0  0  0  0  0
  -65.8930   28.5113  -33.0816 C   0  0  0  0  0  0  0  0  0  0  0  0
  -66.7868   27.5529  -32.5592 C   0  0  0  0  0  0  0  0  0  0  0  0
  -66.5140   26.1906  -32.8225 C   0  0  0  0  0  0  0  0  0  0  0  0
  -65.2854   25.8017  -33.4666 C   0  0  0  0  0  0  0  0  0  0  0  0
  -64.3098   25.1116  -32.5471 C   0  0  0  0  0  0  0  0  0  0  0  0
  -63.7976   24.0349  -32.9232 O   0  0  0  0  0  0  0  0  0  0  0  0
  -63.6386   25.9399  -31.6747 N   0  0  0  0  0  0  0  0  0  0  0  0
  -63.0491   27.2189  -32.0642 C   0  0  0  0  0  0  0  0  0  0  0  0
  -61.6971   27.4047  -31.3428 C   0  0  0  0  0  0  0  0  0  0  0  0
  -61.8346   26.8964  -29.8862 C   0  0  0  0  0  0  0  0  0  0  0  0
  -62.9007   26.2220  -29.4001 C   0  0  0  0  0  0  0  0  0  0  0  0
  -62.9414   25.6561  -28.0908 C   0  0  0  0  0  0  0  0  0  0  0  0
  -63.7110   24.7446  -27.8390 O   0  0  0  0  0  0  0  0  0  0  0  0
  -61.8409   25.8347  -27.2913 O   0  0  0  0  0  0  0  0  0  0  0  0
  -60.7430   26.5704  -27.7204 C   0  0  0  0  0  0  0  0  0  0  0  0
  -59.7604   26.8178  -26.7540 C   0  0  0  0  0  0  0  0  0  0  0  0
  -58.9815   27.9673  -26.8968 C   0  0  0  0  0  0  0  0  0  0  0  0
  -59.1563   28.8070  -28.0237 C   0  0  0  0  0  0  0  0  0  0  0  0
  -60.0261   28.4562  -29.0907 C   0  0  0  0  0  0  0  0  0  0  0  0
  -60.7771   27.2712  -28.9245 C   0  0  0  0  0  0  0  0  0  0  0  0
  -64.0921   25.8309  -30.2204 C   0  0  0  0  0  0  0  0  0  0  0  0
  -64.7863   26.7646  -34.3831 C   0  0  0  0  0  0  0  0  0  0  0  0
  -64.9797   28.1331  -34.1071 C   0  0  0  0  0  0  0  0  0  0  0  0
  4  2  1  0
  2  3  1  0
  2  1  2  0
 13 23  4  0
 23 18  4  0
 23 22  4  0
 21 20  4  0
 22 21  4  0
 19 20  4  0
 18 19  4  0
  5  4  4  0
  6  5  4  0
  7 25  4  0
  8  7  1  0
  7  6  4  0
 25 26  4  0
 26  4  4  0
  8  9  2  0
 10  8  1  0
 13 12  1  0
 14 13  4  0
 12 11  1  0
 24 14  1  0
 14 15  4  0
 24 10  1  0
 11 10  1  0
 15 16  2  0
 15 17  4  0
 17 18  4  0
M  END
$$$$
