
     RDKit          3D

 30 34  0  0  0  0  0  0  0  0999 V2000
  -66.1201   24.9277  -33.9004 O   0  0  0  0  0  0  0  0  0  0  0  0
  -65.3088   25.5070  -33.1935 C   0  0  0  0  0  0  0  0  0  0  0  0
  -65.5791   25.6754  -31.7027 C   0  0  0  0  0  0  0  0  0  0  0  0
  -66.9248   25.8033  -31.2513 C   0  0  0  0  0  0  0  0  0  0  0  0
  -67.2645   26.0128  -29.8787 C   0  0  0  0  0  0  0  0  0  0  0  0
  -66.2330   26.0930  -28.9701 C   0  0  0  0  0  0  0  0  0  0  0  0
  -64.8899   26.0126  -29.3927 C   0  0  0  0  0  0  0  0  0  0  0  0
  -64.5496   25.8472  -30.7623 C   0  0  0  0  0  0  0  0  0  0  0  0
  -63.8825   26.0336  -28.2206 C   0  0  0  0  0  0  0  0  0  0  0  0
  -64.9254   26.0632  -26.7074 S   0  0  1  0  0  0  0  0  0  0  0  0
  -64.9056   24.6711  -26.1743 O   0  0  0  0  0  0  0  0  0  0  0  0
  -64.7957   27.2369  -25.8747 O   0  0  0  0  0  0  0  0  0  0  0  0
  -66.3816   26.2179  -27.6247 N   0  0  0  0  0  0  0  0  0  0  0  0
  -64.3212   26.3411  -33.7945 N   0  0  0  0  0  0  0  0  0  0  0  0
  -64.2668   27.8179  -33.7871 C   0  0  0  0  0  0  0  0  0  0  0  0
  -63.1710   28.2977  -32.7824 C   0  0  0  0  0  0  0  0  0  0  0  0
  -61.9025   27.5260  -32.9085 C   0  0  0  0  0  0  0  0  0  0  0  0
  -60.7836   28.0546  -32.3576 N   0  0  0  0  0  0  0  0  0  0  0  0
  -59.6081   27.2433  -32.4412 C   0  0  0  0  0  0  0  0  0  0  0  0
  -58.8474   27.1645  -31.1188 C   0  0  0  0  0  0  0  0  0  0  0  0
  -59.5827   27.8176  -30.0411 C   0  0  0  0  0  0  0  0  0  0  0  0
  -59.5833   27.2200  -28.7409 C   0  0  0  0  0  0  0  0  0  0  0  0
  -58.7148   26.1269  -28.5692 C   0  0  0  0  0  0  0  0  0  0  0  0
  -57.9295   25.5968  -29.5657 C   0  0  0  0  0  0  0  0  0  0  0  0
  -57.8583   26.1928  -30.8694 C   0  0  0  0  0  0  0  0  0  0  0  0
  -59.4440   26.2715  -33.2983 N   0  0  0  0  0  0  0  0  0  0  0  0
  -60.5549   25.6181  -33.8528 C   0  0  0  0  0  0  0  0  0  0  0  0
  -60.5516   24.7832  -34.7336 O   0  0  0  0  0  0  0  0  0  0  0  0
  -61.8781   26.3023  -33.5434 C   0  0  0  0  0  0  0  0  0  0  0  0
  -63.1091   25.6173  -34.1316 C   0  0  0  0  0  0  0  0  0  0  0  0
 10 11  2  0
 10 12  2  0
 13 10  1  0
 10  9  1  1
 27 28  2  0
  2  1  2  0
  6 13  1  0
  5  6  4  0
  7  6  4  0
  4  5  4  0
  7  9  1  0
  8  7  4  0
  3  8  4  0
  3  4  4  0
  2  3  1  0
 14  2  1  0
 14 15  1  0
 30 14  1  0
 15 16  1  0
 16 17  1  0
 29 30  1  0
 29 27  4  0
 29 17  4  0
 27 26  4  0
 26 19  4  0
 19 18  4  0
 19 20  1  0
 18 17  4  0
 20 21  4  0
 20 25  4  0
 21 22  4  0
 22 23  4  0
 25 24  4  0
 24 23  4  0
M  END
$$$$
