
     RDKit          3D

 27 29  0  0  0  0  0  0  0  0999 V2000
  -10.1810   32.9370    4.2300 C   0  0  0  0  0  0  0  0  0  0  0  0
  -11.3040   32.2550    4.9160 C   0  0  0  0  0  0  0  0  0  0  0  0
  -12.5650   32.2740    4.3680 C   0  0  0  0  0  0  0  0  0  0  0  0
  -13.6080   31.6390    5.0050 C   0  0  0  0  0  0  0  0  0  0  0  0
  -13.3970   30.9870    6.1980 C   0  0  0  0  0  0  0  0  0  0  0  0
  -12.1340   30.9790    6.7390 C   0  0  0  0  0  0  0  0  0  0  0  0
  -11.8380   30.3580    7.9350 N   0  0  0  0  0  0  0  0  0  0  0  0
  -12.7220   29.8200    8.8530 C   0  0  0  0  0  0  0  0  0  0  0  0
  -14.0480   29.7630    8.6430 N   0  0  0  0  0  0  0  0  0  0  0  0
  -14.8100   29.2070    9.6050 C   0  0  0  0  0  0  0  0  0  0  0  0
  -16.2200   29.0910    9.4880 N   0  0  0  0  0  0  0  0  0  0  0  0
  -16.7520   29.4330    8.1690 C   0  0  2  0  0  0  0  0  0  0  0  0
  -18.2480   29.6830    8.2510 C   0  0  0  0  0  0  0  0  0  0  0  0
  -18.7850   30.1070    6.8910 C   0  0  0  0  0  0  0  0  0  0  0  0
  -18.4300   29.1310    5.7820 C   0  0  0  0  0  0  0  0  0  0  0  0
  -16.9420   28.8730    5.7490 C   0  0  0  0  0  0  0  0  0  0  0  0
  -16.4550   28.3890    7.0990 C   0  0  2  0  0  0  0  0  0  0  0  0
  -17.0580   27.0980    7.3850 N   0  0  0  0  0  0  0  0  0  0  0  0
  -14.2520   28.7140   10.7670 C   0  0  0  0  0  0  0  0  0  0  0  0
  -15.0010   28.0960   11.8140 C   0  0  0  0  0  0  0  0  0  0  0  0
  -15.5850   27.4870   12.6230 N   0  0  0  0  0  0  0  0  0  0  0  0
  -12.8900   28.7700   10.9740 C   0  0  0  0  0  0  0  0  0  0  0  0
  -12.1200   29.3390    9.9940 C   0  0  0  0  0  0  0  0  0  0  0  0
  -10.6640   29.3940   10.2070 C   0  0  0  0  0  0  0  0  0  0  0  0
  -10.3330   28.8290   11.3990 N   0  0  0  0  0  0  0  0  0  0  0  0
   -9.8890   29.8910    9.3940 O   0  0  0  0  0  0  0  0  0  0  0  0
  -11.0860   31.6070    6.1040 C   0  0  0  0  0  0  0  0  0  0  0  0
 23 22  2  0
 23 24  1  0
  8 23  1  0
 10 19  2  0
  9 10  1  0
 10 11  1  0
 22 19  1  0
 19 20  1  0
  2  1  1  0
 20 21  3  0
 24 26  2  0
 24 25  1  0
  8  9  2  0
  7  8  1  0
  6  7  1  0
 12 11  1  1
 27  6  2  0
  6  5  1  0
 27  2  1  0
  2  3  2  0
  3  4  1  0
  4  5  2  0
 12 13  1  0
 12 17  1  0
 13 14  1  0
 14 15  1  0
 15 16  1  0
 16 17  1  0
 17 18  1  1
M  CHG  1  18   1
M  END
$$$$
