
     RDKit          3D

 27 29  0  0  0  0  0  0  0  0999 V2000
  -10.3155   33.1548    4.5017 C   0  0  0  0  0  0  0  0  0  0  0  0
  -11.3866   32.3160    5.0960 C   0  0  0  0  0  0  0  0  0  0  0  0
  -12.5446   32.0515    4.3968 C   0  0  0  0  0  0  0  0  0  0  0  0
  -13.4425   31.1421    4.9137 C   0  0  0  0  0  0  0  0  0  0  0  0
  -13.2125   30.5161    6.1049 C   0  0  0  0  0  0  0  0  0  0  0  0
  -12.0767   30.8245    6.8057 C   0  0  0  0  0  0  0  0  0  0  0  0
  -11.6719   30.1550    7.9559 N   0  0  0  0  0  0  0  0  0  0  0  0
  -12.4477   29.2643    8.7068 C   0  0  0  0  0  0  0  0  0  0  0  0
  -13.7637   29.0759    8.4491 N   0  0  0  0  0  0  0  0  0  0  0  0
  -14.5646   28.9337    9.5079 C   0  0  0  0  0  0  0  0  0  0  0  0
  -16.0186   28.9322    9.3828 N   0  0  0  0  0  0  0  0  0  0  0  0
  -16.4561   29.0987    8.0136 C   0  0  2  0  0  0  0  0  0  0  0  0
  -17.2415   30.4192    7.7802 C   0  0  0  0  0  0  0  0  0  0  0  0
  -18.6399   30.3013    8.4309 C   0  0  0  0  0  0  0  0  0  0  0  0
  -19.3831   29.1034    7.9820 C   0  0  0  0  0  0  0  0  0  0  0  0
  -18.6195   27.8235    8.1757 C   0  0  0  0  0  0  0  0  0  0  0  0
  -17.2416   27.9349    7.4615 C   0  0  1  0  0  0  0  0  0  0  0  0
  -17.4859   27.9625    6.0154 N   0  0  0  0  0  0  0  0  0  0  0  0
  -14.0975   28.7962   10.8006 C   0  0  0  0  0  0  0  0  0  0  0  0
  -14.9260   28.8062   11.9650 C   0  0  0  0  0  0  0  0  0  0  0  0
  -15.9694   28.8073   12.5947 N   0  0  0  0  0  0  0  0  0  0  0  0
  -12.7341   28.8420   11.0284 C   0  0  0  0  0  0  0  0  0  0  0  0
  -11.8979   29.0523    9.9691 C   0  0  0  0  0  0  0  0  0  0  0  0
  -10.4842   28.7387   10.1272 C   0  0  0  0  0  0  0  0  0  0  0  0
  -10.2530   28.2165   11.4177 N   0  0  0  0  0  0  0  0  0  0  0  0
   -9.6306   29.0202    9.2727 O   0  0  0  0  0  0  0  0  0  0  0  0
  -11.2198   31.7923    6.3424 C   0  0  0  0  0  0  0  0  0  0  0  0
 23 22  4  0
 23 24  1  0
  8 23  4  0
 10 19  4  0
  9 10  4  0
 10 11  1  0
 22 19  4  0
 19 20  1  0
  2  1  1  0
 20 21  3  0
 24 26  2  0
 24 25  1  0
  8  9  4  0
  7  8  1  0
  6  7  1  0
 12 11  1  1
 27  6  4  0
  6  5  4  0
 27  2  4  0
  2  3  4  0
  3  4  4  0
  4  5  4  0
 12 13  1  0
 12 17  1  0
 13 14  1  0
 14 15  1  0
 15 16  1  0
 16 17  1  0
 17 18  1  1
M  CHG  1  18   1
M  END
$$$$
