
     RDKit          3D

 30 32  0  0  0  0  0  0  0  0999 V2000
  -13.0040   23.6530   -8.0610 N   0  0  0  0  0  0  0  0  0  0  0  0
  -13.9940   22.7400   -7.6320 C   0  0  0  0  0  0  0  0  0  0  0  0
  -14.6290   21.9690   -8.5690 N   0  0  0  0  0  0  0  0  0  0  0  0
  -15.6070   21.0670   -8.1510 C   0  0  0  0  0  0  0  0  0  0  0  0
  -16.0260   20.8500   -6.8780 N   0  0  0  0  0  0  0  0  0  0  0  0
  -15.3990   21.6170   -5.9130 C   0  0  0  0  0  0  0  0  0  0  0  0
  -14.3740   22.5790   -6.2380 C   0  0  0  0  0  0  0  0  0  0  0  0
  -13.9400   23.1910   -5.0370 N   0  0  0  0  0  0  0  0  0  0  0  0
  -14.6660   22.6270   -4.0390 C   0  0  0  0  0  0  0  0  0  0  0  0
  -15.5730   21.6590   -4.5050 N   0  0  0  0  0  0  0  0  0  0  0  0
  -16.5190   20.8690   -3.5700 C   0  0  1  0  0  0  0  0  0  0  0  0
  -15.8320   19.9560   -2.4820 C   0  0  0  0  0  0  0  0  0  0  0  0
  -15.8780   20.8100   -1.1850 C   0  0  2  0  0  0  0  0  0  0  0  0
  -16.0160   20.0250   -0.0140 O   0  0  0  0  0  0  0  0  0  0  0  0
  -17.1510   21.5900   -1.4140 C   0  0  1  0  0  0  0  0  0  0  0  0
  -17.0590   22.9730   -0.5970 C   0  0  0  0  0  0  0  0  0  0  0  0
  -16.1140   23.7830   -1.1360 O   0  0  0  0  0  0  0  0  0  0  0  0
  -14.7580   24.4640   -0.0130 P   0  0  1  0  0  0  0  0  0  0  0  0
  -14.3050   25.5600   -0.9350 O   0  0  0  0  0  0  0  0  0  0  0  0
  -15.5740   24.9220    1.1800 O   0  0  0  0  0  0  0  0  0  0  0  0
  -13.8100   23.2560    0.2170 O   0  0  0  0  0  0  0  0  0  0  0  0
  -13.7810   22.1340    1.6960 P   0  0  2  0  0  0  0  0  0  0  0  0
  -13.4850   20.8580    0.9610 O   0  0  0  0  0  0  0  0  0  0  0  0
  -15.2010   22.2150    2.2170 O   0  0  0  0  0  0  0  0  0  0  0  0
  -12.6870   22.5400    2.7390 O   0  0  0  0  0  0  0  0  0  0  0  0
  -12.4070   24.2030    3.4590 P   0  0  2  0  0  0  0  0  0  0  0  0
  -13.7690   24.8500    3.3800 O   0  0  0  0  0  0  0  0  0  0  0  0
  -11.3770   24.8560    2.5550 O   0  0  0  0  0  0  0  0  0  0  0  0
  -11.9250   24.0720    4.8930 O   0  0  0  0  0  0  0  0  0  0  0  0
  -17.2980   21.7700   -2.8310 O   0  0  0  0  0  0  0  0  0  0  0  0
 26 28  1  6
 26 27  2  0
 26 29  1  0
 25 26  1  0
 22 23  2  0
 22 24  1  1
 22 25  1  0
 21 22  1  0
 18 19  2  0
 18 20  1  1
 18 21  1  0
 18 17  1  0
 17 16  1  0
 15 16  1  1
 15 30  1  0
 15 13  1  0
 30 11  1  0
 13 14  1  1
 13 12  1  0
 12 11  1  0
 11 10  1  1
 10  9  1  0
 10  6  1  0
  9  8  2  0
  8  7  1  0
  7  2  1  0
  7  6  2  0
  2  1  1  0
  2  3  2  0
  3  4  1  0
  4  5  2  0
  5  6  1  0
M  END
$$$$
