
     RDKit          3D

 34 37  0  0  0  0  0  0  0  0999 V2000
   14.4002   40.4194   -5.6858 H   0  0  0  0  0  0  0  0  0  0  0  0
   15.0802   39.4240   -5.5754 N   0  0  0  0  0  0  0  0  0  0  0  0
   15.8552   39.3470   -6.6196 C   0  0  0  0  0  0  0  0  0  0  0  0
   16.3620   38.1780   -6.9584 N   0  0  0  0  0  0  0  0  0  0  0  0
   17.1787   37.9081   -8.1299 C   0  0  2  0  0  0  0  0  0  0  0  0
   17.0528   36.3775   -8.3256 C   0  0  0  0  0  0  0  0  0  0  0  0
   18.6680   38.1531   -7.8685 C   0  0  0  0  0  0  0  0  0  0  0  0
   19.1571   38.2476   -6.5280 C   0  0  0  0  0  0  0  0  0  0  0  0
   20.5017   38.4415   -6.2286 C   0  0  0  0  0  0  0  0  0  0  0  0
   20.7799   39.2074   -5.1456 N   0  0  0  0  0  0  0  0  0  0  0  0
   21.2307   40.4660   -5.0723 C   0  0  0  0  0  0  0  0  0  0  0  0
   21.9971   40.9870   -5.9503 O   0  0  0  0  0  0  0  0  0  0  0  0
   20.4890   41.4647   -4.1959 C   0  0  0  0  0  0  0  0  0  0  0  0
   20.6035   42.8554   -4.4556 C   0  0  0  0  0  0  0  0  0  0  0  0
   20.5762   43.7049   -3.4145 N   0  0  0  0  0  0  0  0  0  0  0  0
   20.3448   43.2745   -2.1417 C   0  0  0  0  0  0  0  0  0  0  0  0
   20.6570   44.0732   -1.0473 O   0  0  0  0  0  0  0  0  0  0  0  0
   20.0749   43.7697    0.2505 C   0  0  0  0  0  0  0  0  0  0  0  0
   21.1796   43.8383    1.2024 F   0  0  0  0  0  0  0  0  0  0  0  0
   19.9697   41.9196   -1.9322 C   0  0  0  0  0  0  0  0  0  0  0  0
   19.9689   41.0708   -2.9904 N   0  0  0  0  0  0  0  0  0  0  0  0
   21.4418   38.1352   -7.2491 C   0  0  0  0  0  0  0  0  0  0  0  0
   21.0778   38.0878   -8.5975 C   0  0  0  0  0  0  0  0  0  0  0  0
   19.7148   38.1129   -8.9083 C   0  0  0  0  0  0  0  0  0  0  0  0
   19.4083   38.0672  -10.2104 F   0  0  0  0  0  0  0  0  0  0  0  0
   16.7028   38.6885   -9.4062 C   0  0  1  0  0  0  0  0  0  0  0  0
   15.3977   38.1855   -9.9521 C   0  0  0  0  0  0  0  0  0  0  0  0
   15.2679   38.1221  -11.4036 C   0  0  0  0  0  0  0  0  0  0  0  0
   14.6855   37.0248  -12.0146 C   0  0  0  0  0  0  0  0  0  0  0  0
   13.9886   36.0581  -11.2626 C   0  0  0  0  0  0  0  0  0  0  0  0
   13.9334   36.2171   -9.8121 C   0  0  0  0  0  0  0  0  0  0  0  0
   14.5066   37.3087   -9.2206 C   0  0  0  0  0  0  0  0  0  0  0  0
   16.6779   40.2333   -9.2265 C   0  0  0  0  0  0  0  0  0  0  0  0
   16.1076   40.7269   -7.5950 S   0  0  0  0  0  0  0  0  0  0  0  0
 22 23  4  0
  9 22  4  0
 23 24  4  0
  7 24  4  0
 24 25  1  0
  8  7  4  0
  7  5  1  0
  9  8  4  0
  5 26  1  0
  5  6  1  6
  5  4  1  0
 26 33  1  0
 26 27  1  1
  3  2  2  0
 11 10  1  0
 10  9  1  0
 16 17  1  0
 17 18  1  0
 33 34  1  0
 21 13  4  0
 20 21  4  0
  4  3  1  0
  3 34  1  0
 13 11  1  0
 11 12  2  0
 13 14  4  0
 20 16  4  0
 16 15  4  0
 14 15  4  0
 18 19  1  0
 27 28  4  0
 27 32  4  0
 28 29  4  0
 29 30  4  0
 30 31  4  0
 31 32  4  0
  2  1  1  0
M  END
$$$$
