
     RDKit          3D

 34 37  0  0  0  0  0  0  0  0999 V2000
  -14.8413  -39.3273   -5.8692 H   0  0  0  0  0  0  0  0  0  0  0  0
  -14.9230  -40.1780   -6.4260 N   0  0  0  0  0  0  0  0  0  0  0  0
  -15.8400  -40.2580   -7.3900 C   0  0  0  0  0  0  0  0  0  0  0  0
  -16.5920  -39.2460   -7.5790 N   0  0  0  0  0  0  0  0  0  0  0  0
  -17.5870  -39.0140   -8.6420 C   0  0  2  0  0  0  0  0  0  0  0  0
  -17.1900  -37.6210   -9.1290 C   0  0  0  0  0  0  0  0  0  0  0  0
  -18.9930  -39.0640   -8.0290 C   0  0  0  0  0  0  0  0  0  0  0  0
  -19.2560  -39.9190   -6.9530 C   0  0  0  0  0  0  0  0  0  0  0  0
  -20.5180  -40.0530   -6.3700 C   0  0  0  0  0  0  0  0  0  0  0  0
  -20.5880  -40.9170   -5.3140 N   0  0  0  0  0  0  0  0  0  0  0  0
  -21.6540  -41.4630   -4.7220 C   0  0  0  0  0  0  0  0  0  0  0  0
  -22.7980  -41.3670   -5.1380 O   0  0  0  0  0  0  0  0  0  0  0  0
  -21.4150  -42.2170   -3.4510 C   0  0  0  0  0  0  0  0  0  0  0  0
  -22.3670  -43.1230   -2.9740 C   0  0  0  0  0  0  0  0  0  0  0  0
  -22.1300  -43.7740   -1.8270 N   0  0  0  0  0  0  0  0  0  0  0  0
  -20.9770  -43.5740   -1.1240 C   0  0  0  0  0  0  0  0  0  0  0  0
  -20.7310  -44.2390    0.0510 O   0  0  0  0  0  0  0  0  0  0  0  0
  -21.7450  -44.9540    0.7620 C   0  0  0  0  0  0  0  0  0  0  0  0
  -22.7550  -44.0960    1.1010 F   0  0  0  0  0  0  0  0  0  0  0  0
  -20.0240  -42.6790   -1.6040 C   0  0  0  0  0  0  0  0  0  0  0  0
  -20.2630  -42.0170   -2.7540 N   0  0  0  0  0  0  0  0  0  0  0  0
  -21.6020  -39.3050   -6.8570 C   0  0  0  0  0  0  0  0  0  0  0  0
  -21.4330  -38.4330   -7.9380 C   0  0  0  0  0  0  0  0  0  0  0  0
  -20.1730  -38.2940   -8.5390 C   0  0  0  0  0  0  0  0  0  0  0  0
  -20.0340  -37.4600   -9.5730 F   0  0  0  0  0  0  0  0  0  0  0  0
  -17.5010  -40.0230   -9.8410 C   0  0  2  0  0  0  0  0  0  0  0  0
  -18.6370  -39.9090  -10.8280 C   0  0  0  0  0  0  0  0  0  0  0  0
  -18.5280  -39.0200  -11.9050 C   0  0  0  0  0  0  0  0  0  0  0  0
  -19.5560  -38.8810  -12.8390 C   0  0  0  0  0  0  0  0  0  0  0  0
  -20.7250  -39.6350  -12.6980 C   0  0  0  0  0  0  0  0  0  0  0  0
  -20.8650  -40.5260  -11.6280 C   0  0  0  0  0  0  0  0  0  0  0  0
  -19.8230  -40.6670  -10.7010 C   0  0  0  0  0  0  0  0  0  0  0  0
  -17.3150  -41.4960   -9.4170 C   0  0  0  0  0  0  0  0  0  0  0  0
  -15.9660  -41.6720   -8.2920 S   0  0  0  0  0  0  0  0  0  0  0  0
 22 23  2  0
  9 22  1  0
 23 24  1  0
  7 24  2  0
 24 25  1  0
  8  7  1  0
  7  5  1  0
  9  8  2  0
  5 26  1  0
  5  6  1  6
  5  4  1  0
 26 33  1  0
 26 27  1  1
  3  2  2  0
 11 10  1  0
 10  9  1  0
 16 17  1  0
 17 18  1  0
 33 34  1  0
 21 13  2  0
 20 21  1  0
  4  3  1  0
  3 34  1  0
 13 11  1  0
 11 12  2  0
 13 14  1  0
 20 16  2  0
 16 15  1  0
 14 15  2  0
 18 19  1  0
 27 28  2  0
 27 32  1  0
 28 29  1  0
 29 30  2  0
 30 31  1  0
 31 32  2  0
  2  1  1  0
M  END
$$$$
