
     RDKit          3D

 26 28  0  0  0  0  0  0  0  0999 V2000
   14.5204   40.6410   -5.8320 H   0  0  0  0  0  0  0  0  0  0  0  0
   15.0570   39.8150   -6.0970 N   0  0  0  0  0  0  0  0  0  0  0  0
   15.8760   39.8610   -7.1480 C   0  0  0  0  0  0  0  0  0  0  0  0
   16.5360   38.8140   -7.4500 N   0  0  0  0  0  0  0  0  0  0  0  0
   17.4340   38.6220   -8.6010 C   0  0  2  0  0  0  0  0  0  0  0  0
   17.1750   37.1930   -9.0610 C   0  0  0  0  0  0  0  0  0  0  0  0
   18.8960   38.8240   -8.2020 C   0  0  0  0  0  0  0  0  0  0  0  0
   19.2310   39.4730   -7.0090 C   0  0  0  0  0  0  0  0  0  0  0  0
   20.5580   39.6850   -6.6300 C   0  0  0  0  0  0  0  0  0  0  0  0
   20.7390   40.3150   -5.4380 N   0  0  0  0  0  0  0  0  0  0  0  0
   21.8420   40.8850   -4.9210 C   0  0  0  0  0  0  0  0  0  0  0  0
   22.9610   40.8050   -5.4010 O   0  0  0  0  0  0  0  0  0  0  0  0
   21.6560   41.6440   -3.6430 C   0  0  0  0  0  0  0  0  0  0  0  0
   22.5420   42.6540   -3.2480 C   0  0  0  0  0  0  0  0  0  0  0  0
   22.2950   43.3100   -2.0370 C   0  0  0  0  0  0  0  0  0  0  0  0
   21.1760   42.9480   -1.2640 C   0  0  0  0  0  0  0  0  0  0  0  0
   20.8080   43.7300    0.3050 Cl  0  0  0  0  0  0  0  0  0  0  0  0
   20.3330   41.9330   -1.6970 C   0  0  0  0  0  0  0  0  0  0  0  0
   20.5930   41.3120   -2.8590 N   0  0  0  0  0  0  0  0  0  0  0  0
   21.6130   39.2360   -7.4450 C   0  0  0  0  0  0  0  0  0  0  0  0
   21.3590   38.5830   -8.6510 C   0  0  0  0  0  0  0  0  0  0  0  0
   20.0400   38.3680   -9.0600 C   0  0  0  0  0  0  0  0  0  0  0  0
   19.8160   37.7460  -10.2250 F   0  0  0  0  0  0  0  0  0  0  0  0
   17.1210   39.5690   -9.7800 C   0  0  0  0  0  0  0  0  0  0  0  0
   17.1220   41.0520   -9.3850 C   0  0  0  0  0  0  0  0  0  0  0  0
   16.0110   41.2850   -8.0220 S   0  0  0  0  0  0  0  0  0  0  0  0
 20 21  2  0
  9 20  1  0
 21 22  1  0
  7 22  2  0
 22 23  1  0
  8  7  1  0
  7  5  1  0
  9  8  2  0
  5  6  1  6
  5 24  1  0
  5  4  1  0
  3  2  2  0
 11 10  1  0
 10  9  1  0
  3 26  1  0
  4  3  1  0
 13 19  2  0
 19 18  1  0
 24 25  1  0
 25 26  1  0
 11 13  1  0
 11 12  2  0
 13 14  1  0
 18 16  2  0
 16 15  1  0
 16 17  1  0
 15 14  2  0
  2  1  1  0
M  END
$$$$
