
     RDKit          3D

 35 38  0  0  0  0  0  0  0  0999 V2000
  -14.2350  -39.9938   -5.5407 H   0  0  0  0  0  0  0  0  0  0  0  0
  -14.8003  -38.9226   -5.6467 N   0  0  0  0  0  0  0  0  0  0  0  0
  -15.8113  -39.0025   -6.6066 C   0  0  0  0  0  0  0  0  0  0  0  0
  -16.1697  -37.9745   -7.2492 N   0  0  0  0  0  0  0  0  0  0  0  0
  -16.9996  -37.9136   -8.4744 C   0  0  2  0  0  0  0  0  0  0  0  0
  -16.4119  -36.7393   -9.2114 C   0  0  0  0  0  0  0  0  0  0  0  0
  -18.4952  -37.6988   -8.0969 C   0  0  0  0  0  0  0  0  0  0  0  0
  -18.9024  -38.1644   -6.7839 C   0  0  0  0  0  0  0  0  0  0  0  0
  -20.1192  -38.9023   -6.6057 C   0  0  0  0  0  0  0  0  0  0  0  0
  -20.1851  -39.6971   -5.4248 N   0  0  0  0  0  0  0  0  0  0  0  0
  -21.0564  -40.8958   -5.1569 C   0  0  0  0  0  0  0  0  0  0  0  0
  -21.8373  -41.2932   -6.0430 O   0  0  0  0  0  0  0  0  0  0  0  0
  -20.5192  -41.8851   -4.1438 C   0  0  0  0  0  0  0  0  0  0  0  0
  -21.2025  -43.0297   -3.7893 C   0  0  0  0  0  0  0  0  0  0  0  0
  -21.1021  -43.5590   -2.5667 N   0  0  0  0  0  0  0  0  0  0  0  0
  -20.3082  -42.9189   -1.6687 C   0  0  0  0  0  0  0  0  0  0  0  0
  -20.5532  -42.9909   -0.2489 O   0  0  0  0  0  0  0  0  0  0  0  0
  -20.6458  -44.2721    0.2673 C   0  0  0  0  0  0  0  0  0  0  0  0
  -20.6254  -44.2673    1.6409 F   0  0  0  0  0  0  0  0  0  0  0  0
  -19.4070  -41.9759   -2.1157 C   0  0  0  0  0  0  0  0  0  0  0  0
  -19.4988  -41.4641   -3.3509 N   0  0  0  0  0  0  0  0  0  0  0  0
  -21.0389  -38.8857   -7.6546 C   0  0  0  0  0  0  0  0  0  0  0  0
  -20.7393  -38.2632   -8.8768 C   0  0  0  0  0  0  0  0  0  0  0  0
  -19.4998  -37.5245   -9.0171 C   0  0  0  0  0  0  0  0  0  0  0  0
  -19.2602  -37.0337  -10.2388 F   0  0  0  0  0  0  0  0  0  0  0  0
  -16.7175  -39.1495   -9.3511 C   0  0  1  0  0  0  0  0  0  0  0  0
  -17.5433  -39.3542  -10.7255 C   0  0  0  0  0  0  0  0  0  0  0  0
  -16.9772  -39.2249  -12.1464 C   0  0  0  0  0  0  0  0  0  0  0  0
  -15.4256  -40.1619  -12.0416 S   0  0  2  0  0  0  0  0  0  0  0  0
  -14.6989  -39.8765  -13.2728 O   0  0  0  0  0  0  0  0  0  0  0  0
  -15.9038  -41.5512  -11.8586 O   0  0  0  0  0  0  0  0  0  0  0  0
  -14.3989  -39.6345  -10.6938 C   0  0  0  0  0  0  0  0  0  0  0  0
  -15.2396  -39.6254   -9.4046 C   0  0  0  0  0  0  0  0  0  0  0  0
  -17.2697  -40.4795   -8.5981 C   0  0  0  0  0  0  0  0  0  0  0  0
  -16.3606  -40.6523   -7.0136 S   0  0  0  0  0  0  0  0  0  0  0  0
  5  6  1  6
  5 26  1  0
  5  4  1  0
  7  5  1  0
  4  3  1  0
  3  2  2  0
  3 35  1  0
 26 34  1  6
 34 35  1  0
 26 27  1  0
 26 33  1  0
 27 28  1  0
 29 28  1  1
 29 30  2  0
 33 32  1  0
 32 29  1  0
 29 31  2  0
 10  9  1  0
 11 10  1  0
  8  7  4  0
  7 24  4  0
  9  8  4  0
  9 22  4  0
 13 11  1  0
 11 12  2  0
 13 14  4  0
 21 13  4  0
 20 16  4  0
 20 21  4  0
 24 25  1  0
 24 23  4  0
 23 22  4  0
 14 15  4  0
 15 16  4  0
 16 17  1  0
 17 18  1  0
 18 19  1  0
  2  1  1  0
M  END
$$$$
