
     RDKit          3D

 30 32  0  0  0  0  0  0  0  0999 V2000
   14.2300   40.2834   -5.5281 H   0  0  0  0  0  0  0  0  0  0  0  0
   14.2670   39.1341   -5.9388 N   0  0  0  0  0  0  0  0  0  0  0  0
   14.9308   39.2528   -7.1220 C   0  0  0  0  0  0  0  0  0  0  0  0
   15.5339   38.1872   -7.5533 N   0  0  0  0  0  0  0  0  0  0  0  0
   16.4076   38.0426   -8.7457 C   0  0  2  0  0  0  0  0  0  0  0  0
   16.2125   36.6510   -9.2432 C   0  0  0  0  0  0  0  0  0  0  0  0
   17.8490   38.2573   -8.3504 C   0  0  0  0  0  0  0  0  0  0  0  0
   18.2053   38.6029   -7.0408 C   0  0  0  0  0  0  0  0  0  0  0  0
   19.5279   38.8755   -6.6994 C   0  0  0  0  0  0  0  0  0  0  0  0
   19.7621   39.6825   -5.6144 N   0  0  0  0  0  0  0  0  0  0  0  0
   20.5840   40.6274   -5.3951 C   0  0  0  0  0  0  0  0  0  0  0  0
   21.7981   40.6368   -5.8687 O   0  0  0  0  0  0  0  0  0  0  0  0
   20.3089   41.5654   -4.2775 C   0  0  0  0  0  0  0  0  0  0  0  0
   21.2176   42.5654   -3.8471 C   0  0  0  0  0  0  0  0  0  0  0  0
   21.2528   42.8929   -2.5805 N   0  0  0  0  0  0  0  0  0  0  0  0
   20.3166   42.4209   -1.7000 C   0  0  0  0  0  0  0  0  0  0  0  0
   20.4326   42.6658   -0.3429 O   0  0  0  0  0  0  0  0  0  0  0  0
   20.4662   43.9976    0.1919 C   0  0  0  0  0  0  0  0  0  0  0  0
   20.4687   43.8891    1.5352 F   0  0  0  0  0  0  0  0  0  0  0  0
   19.3402   41.5797   -2.1083 C   0  0  0  0  0  0  0  0  0  0  0  0
   19.2849   41.2246   -3.3863 N   0  0  0  0  0  0  0  0  0  0  0  0
   20.5833   38.4753   -7.6118 C   0  0  0  0  0  0  0  0  0  0  0  0
   20.2621   38.1370   -8.8965 C   0  0  0  0  0  0  0  0  0  0  0  0
   18.9480   37.9096   -9.2757 C   0  0  0  0  0  0  0  0  0  0  0  0
   18.7202   37.1908  -10.3617 F   0  0  0  0  0  0  0  0  0  0  0  0
   16.0026   39.0670   -9.7857 C   0  0  1  0  0  0  0  0  0  0  0  0
   14.7303   38.8106  -10.1356 F   0  0  0  0  0  0  0  0  0  0  0  0
   16.0669   40.5398   -9.3382 C   0  0  1  0  0  0  0  0  0  0  0  0
   15.7088   41.5186  -10.4068 C   0  0  0  0  0  0  0  0  0  0  0  0
   15.1328   40.7210   -7.8522 S   0  0  0  0  0  0  0  0  0  0  0  0
  7  5  1  0
  5  4  1  0
  5 26  1  0
  5  6  1  6
  8  7  4  0
  7 24  4  0
  9  8  4  0
  9 22  4  0
 10  9  1  0
 11 13  1  0
 11 12  2  0
 11 10  1  0
 13 21  4  0
 13 14  4  0
 21 20  4  0
 20 16  4  0
 16 15  4  0
 15 14  4  0
 16 17  1  0
  4  3  1  0
 17 18  1  0
 18 19  1  0
 22 23  4  0
 23 24  4  0
 24 25  1  0
  3 30  1  0
  3  2  2  0
 26 28  1  0
 28 29  1  6
 28 30  1  0
 26 27  1  1
  2  1  1  0
M  END
$$$$
