
     RDKit          3D

 35 39  0  0  0  0  0  0  0  0999 V2000
   15.3440    0.1010    1.8370 C   0  0  0  0  0  0  0  0  0  0  0  0
   14.8030    0.5980    3.0340 O   0  0  0  0  0  0  0  0  0  0  0  0
   13.4210    0.7740    2.9700 C   0  0  0  0  0  0  0  0  0  0  0  0
   12.6870    0.7640    1.8650 N   0  0  0  0  0  0  0  0  0  0  0  0
   11.4040    0.9740    2.2020 N   0  0  0  0  0  0  0  0  0  0  0  0
   11.2800    1.1280    3.5410 C   0  0  0  0  0  0  0  0  0  0  0  0
   10.1920    1.3430    4.3190 N   0  0  0  0  0  0  0  0  0  0  0  0
   10.2970    1.4650    5.6310 C   0  0  0  0  0  0  0  0  0  0  0  0
   11.5520    1.3520    6.2380 C   0  0  0  0  0  0  0  0  0  0  0  0
   11.7530    1.4770    7.7270 C   0  0  0  0  0  0  0  0  0  0  0  0
   10.8100    1.3200    8.7250 C   0  0  0  0  0  0  0  0  0  0  0  0
   11.4600    1.5160    9.8470 N   0  0  0  0  0  0  0  0  0  0  0  0
   10.9550    1.4840   11.1950 C   0  0  0  0  0  0  0  0  0  0  0  0
   10.5330    0.3400   11.8600 C   0  0  0  0  0  0  0  0  0  0  0  0
   10.5420   -0.8670   11.2040 F   0  0  0  0  0  0  0  0  0  0  0  0
   10.1040    0.4520   13.1850 C   0  0  0  0  0  0  0  0  0  0  0  0
   10.1090    1.6990   13.8220 C   0  0  0  0  0  0  0  0  0  0  0  0
   10.5570    2.8050   13.1060 C   0  0  0  0  0  0  0  0  0  0  0  0
   10.6240    4.1620   13.5700 N   0  0  0  0  0  0  0  0  0  0  0  0
   10.1880    4.5550   15.1300 S   0  0  2  0  0  6  0  0  0  0  0  0
   10.5470    5.9310   15.4600 O   0  0  0  0  0  0  0  0  0  0  0  0
   10.8880    3.7040   16.0990 O   0  0  0  0  0  0  0  0  0  0  0  0
    8.4030    4.2930   15.2840 C   0  0  0  0  0  0  0  0  0  0  0  0
    7.5250    4.5560   14.2560 C   0  0  0  0  0  0  0  0  0  0  0  0
    6.1640    4.3290   14.4360 C   0  0  0  0  0  0  0  0  0  0  0  0
    5.6890    3.8300   15.6410 C   0  0  0  0  0  0  0  0  0  0  0  0
    6.5870    3.5790   16.6450 C   0  0  0  0  0  0  0  0  0  0  0  0
    6.0210    2.8590   18.3500 Br  0  0  0  0  0  0  0  0  0  0  0  0
    7.9290    3.7970   16.4690 C   0  0  0  0  0  0  0  0  0  0  0  0
   10.9690    2.6900   11.8170 C   0  0  0  0  0  0  0  0  0  0  0  0
   11.3810    3.8060   11.1560 F   0  0  0  0  0  0  0  0  0  0  0  0
   12.7580    1.7990    9.5990 N   0  0  0  0  0  0  0  0  0  0  0  0
   12.9330    1.7640    8.2690 N   0  0  0  0  0  0  0  0  0  0  0  0
   12.6870    1.1200    5.4730 C   0  0  0  0  0  0  0  0  0  0  0  0
   12.5450    1.0050    4.0810 C   0  0  0  0  0  0  0  0  0  0  0  0
 14 16  2  0
 14 15  1  0
 13 14  1  0
 11 10  2  0
 10  9  1  0
 10 33  1  0
  9 34  2  0
 34 35  1  0
 35  3  2  0
  3  4  1  0
  3  2  1  0
  2  1  1  0
  9  8  1  0
  8  7  2  0
 27 28  1  0
 29 27  2  0
 27 26  1  0
 23 29  1  0
 20 23  1  0
 23 24  2  0
 20 19  1  6
 20 21  2  0
 20 22  2  0
 18 19  1  0
 18 17  2  0
 30 18  1  0
 16 17  1  0
 12 13  1  0
 13 30  2  0
 12 11  1  0
 12 32  1  0
 35  6  1  0
  6  5  2  0
  6  7  1  0
  5  4  1  0
 33 32  2  0
 30 31  1  0
 24 25  1  0
 25 26  2  0
M  END
$$$$
