
     RDKit          3D

 20 22  0  0  0  0  0  0  0  0999 V2000
  -12.3210   -7.9390  -14.1610 N   0  0  0  0  0  0  0  0  0  0  0  0
  -12.7520   -8.3170  -12.8070 C   0  0  0  0  0  0  0  0  0  0  0  0
  -12.9420   -9.6170  -12.4810 N   0  0  0  0  0  0  0  0  0  0  0  0
  -13.3530   -9.9720  -11.2290 C   0  0  0  0  0  0  0  0  0  0  0  0
  -13.5690   -9.0720  -10.2820 N   0  0  0  0  0  0  0  0  0  0  0  0
  -13.4020   -7.6860  -10.5110 C   0  0  0  0  0  0  0  0  0  0  0  0
  -12.9900   -7.2730  -11.7820 C   0  0  0  0  0  0  0  0  0  0  0  0
  -12.9130   -5.8180  -11.7280 C   0  0  0  0  0  0  0  0  0  0  0  0
  -12.3410   -4.5210  -13.2860 I   0  0  0  0  0  0  0  0  0  0  0  0
  -13.2770   -5.4730  -10.4110 C   0  0  0  0  0  0  0  0  0  0  0  0
  -13.5680   -6.5960   -9.7250 N   0  0  0  0  0  0  0  0  0  0  0  0
  -13.9660   -6.6490   -8.3900 C   0  0  2  0  0  0  0  0  0  0  0  0
  -15.1050   -5.5250   -8.1170 O   0  0  0  0  0  0  0  0  0  0  0  0
  -14.8230   -4.8880   -6.9910 C   0  0  2  0  0  0  0  0  0  0  0  0
  -14.5270   -3.4120   -7.2870 C   0  0  0  0  0  0  0  0  0  0  0  0
  -13.4240   -3.3340   -8.1510 O   0  0  0  0  0  0  0  0  0  0  0  0
  -13.5630   -5.5890   -6.3980 C   0  0  1  0  0  0  0  0  0  0  0  0
  -13.9270   -6.4700   -5.4340 O   0  0  0  0  0  0  0  0  0  0  0  0
  -12.9390   -6.3320   -7.6040 C   0  0  1  0  0  0  0  0  0  0  0  0
  -12.2670   -7.5100   -7.1470 O   0  0  0  0  0  0  0  0  0  0  0  0
 16 15  1  0
 14 15  1  6
 14 13  1  0
 14 17  1  0
 13 12  1  0
 12 11  1  6
 12 19  1  0
 11 10  1  0
 11  6  1  0
 10  8  2  0
  8  7  1  0
  8  9  1  0
  7  2  1  0
  7  6  2  0
  2  3  2  0
  2  1  1  0
  3  4  1  0
  4  5  2  0
  5  6  1  0
 19 20  1  1
 19 17  1  0
 17 18  1  1
M  END
$$$$
