
     RDKit          3D

 29 33  0  0  0  0  0  0  0  0999 V2000
   19.2930    9.2960   -6.7580 C   0  0  0  0  0  0  0  0  0  0  0  0
   20.2300    8.8310   -7.8640 C   0  0  0  0  0  0  0  0  0  0  0  0
   21.4020    8.2320   -7.7110 N   0  0  0  0  0  0  0  0  0  0  0  0
   21.9290    7.9570   -8.9250 N   0  0  0  0  0  0  0  0  0  0  0  0
   21.0480    8.4260   -9.8290 C   0  0  0  0  0  0  0  0  0  0  0  0
   20.0120    8.9560   -9.1960 N   0  0  0  0  0  0  0  0  0  0  0  0
   18.8400    9.5460   -9.9240 C   0  0  0  0  0  0  0  0  0  0  0  0
   19.1380   10.5130  -11.0130 C   0  0  0  0  0  0  0  0  0  0  0  0
   17.9630   11.1610  -11.8030 C   0  0  0  0  0  0  0  0  0  0  0  0
   16.5000   10.7950  -11.4520 C   0  0  0  0  0  0  0  0  0  0  0  0
   15.3730   11.4520  -12.2600 C   0  0  0  0  0  0  0  0  0  0  0  0
   15.5770   12.3150  -13.3070 C   0  0  0  0  0  0  0  0  0  0  0  0
   14.3910   12.6920  -13.7800 N   0  0  0  0  0  0  0  0  0  0  0  0
   13.4110   12.0590  -13.0280 N   0  0  0  0  0  0  0  0  0  0  0  0
   11.9820   12.2290  -13.2260 C   0  0  0  0  0  0  0  0  0  0  0  0
   14.0140   11.3060  -12.1030 C   0  0  0  0  0  0  0  0  0  0  0  0
   16.2050    9.7770  -10.3120 C   0  0  0  0  0  0  0  0  0  0  0  0
   17.3750    9.1440   -9.5430 C   0  0  0  0  0  0  0  0  0  0  0  0
   20.5860   10.9290  -11.4130 C   0  0  2  0  0  0  0  0  0  0  0  0
   20.5640   11.9210  -12.4810 N   0  0  0  0  0  0  0  0  0  0  0  0
   20.1770   13.2890  -12.2010 C   0  0  0  0  0  0  0  0  0  0  0  0
   20.1510   14.3140  -13.3300 C   0  0  0  0  0  0  0  0  0  0  0  0
   19.7370   15.7460  -13.0220 C   0  0  0  0  0  0  0  0  0  0  0  0
   19.3550   16.1220  -11.5960 C   0  0  0  0  0  0  0  0  0  0  0  0
   18.8700   17.7840  -11.2400 Cl  0  0  0  0  0  0  0  0  0  0  0  0
   19.3730   15.1070  -10.4680 C   0  0  0  0  0  0  0  0  0  0  0  0
   19.7880   13.6750  -10.7770 C   0  0  0  0  0  0  0  0  0  0  0  0
   21.4780    9.7810  -11.8940 C   0  0  0  0  0  0  0  0  0  0  0  0
   21.0830    8.4150  -11.3700 C   0  0  0  0  0  0  0  0  0  0  0  0
 10 17  1  0
 18 17  1  0
  9 10  1  0
 10 11  1  0
  8  9  1  0
  8  7  2  0
 19  8  1  0
  7 18  1  0
  7  6  1  0
 19 28  1  0
 19 20  1  6
 28 29  1  0
 29  5  1  0
  5  6  1  0
  5  4  2  0
  2  1  1  0
  6  2  1  0
  2  3  2  0
 11 16  2  0
 11 12  1  0
 16 14  1  0
 12 13  2  0
 14 15  1  0
 21 22  2  0
 21 27  1  0
 21 20  1  0
 22 23  1  0
 23 24  2  0
 24 26  1  0
 24 25  1  0
 26 27  2  0
  4  3  1  0
 14 13  1  0
M  END
$$$$
