
     RDKit          3D

 40 42  0  0  0  0  0  0  0  0999 V2000
  -11.1410   10.9650   10.7060 C   0  0  0  0  0  0  0  0  0  0  0  0
   -9.9850   11.8700   10.3970 C   0  0  0  0  0  0  0  0  0  0  0  0
  -10.1260   13.0690   10.2270 O   0  0  0  0  0  0  0  0  0  0  0  0
   -8.7960   11.2790   10.3200 N   0  0  0  0  0  0  0  0  0  0  0  0
   -7.5820   12.0430   10.1090 C   0  0  1  0  0  0  0  0  0  0  0  0
   -6.7370   12.0410   11.3780 C   0  0  1  0  0  0  0  0  0  0  0  0
   -6.4340   10.6910   11.7470 O   0  0  0  0  0  0  0  0  0  0  0  0
   -5.5240   12.7530   11.1430 O   0  0  0  0  0  0  0  0  0  0  0  0
   -4.7100   12.1050   10.1670 C   0  0  2  0  0  0  0  0  0  0  0  0
   -3.3650   12.8160   10.0740 C   0  0  0  0  0  0  0  0  0  0  0  0
   -2.3730   12.0520   10.7680 O   0  0  0  0  0  0  0  0  0  0  0  0
   -1.2420   12.9590   10.6460 C   0  0  2  0  0  0  0  0  0  0  0  0
   -0.4980   12.7430    9.4170 O   0  0  0  0  0  0  0  0  0  0  0  0
    0.5600   13.6920    9.2410 C   0  0  2  0  0  0  0  0  0  0  0  0
    1.1470   13.4460    7.8730 C   0  0  0  0  0  0  0  0  0  0  0  0
    1.7290   12.1520    7.8020 O   0  0  0  0  0  0  0  0  0  0  0  0
    1.5830   13.5170   10.3560 C   0  0  1  0  0  0  0  0  0  0  0  0
    2.6350   14.4600   10.1760 O   0  0  0  0  0  0  0  0  0  0  0  0
    0.9230   13.6960   11.7160 C   0  0  2  0  0  0  0  0  0  0  0  0
    1.8620   13.3710   12.7340 O   0  0  0  0  0  0  0  0  0  0  0  0
   -0.3030   12.7860   11.8530 C   0  0  1  0  0  0  0  0  0  0  0  0
   -1.0040   13.0610   13.0960 N   0  0  0  0  0  0  0  0  0  0  0  0
   -1.3880   12.1000   13.9420 C   0  0  0  0  0  0  0  0  0  0  0  0
   -2.1050   12.5590   15.1760 C   0  0  0  0  0  0  0  0  0  0  0  0
   -1.1640   10.9130   13.7220 O   0  0  0  0  0  0  0  0  0  0  0  0
   -5.4260   12.1140    8.8220 C   0  0  2  0  0  0  0  0  0  0  0  0
   -5.5660   13.4640    8.3640 O   0  0  0  0  0  0  0  0  0  0  0  0
   -6.8030   11.4700    8.9320 C   0  0  2  0  0  0  0  0  0  0  0  0
   -7.5330   11.6960    7.7210 O   0  0  0  0  0  0  0  0  0  0  0  0
   -7.8890   10.3360    7.4060 C   0  0  2  0  0  0  0  0  0  0  0  0
   -6.8340    9.6260    6.7690 O   0  0  0  0  0  0  0  0  0  0  0  0
   -7.1880    8.4070    6.0610 C   0  0  2  0  0  0  0  0  0  0  0  0
   -5.8790    7.8870    5.4470 C   0  0  0  0  0  0  0  0  0  0  0  0
   -6.0890    7.3650    4.1360 O   0  0  0  0  0  0  0  0  0  0  0  0
   -8.2950    8.6220    5.0360 C   0  0  2  0  0  0  0  0  0  0  0  0
   -7.8510    9.4810    3.9900 O   0  0  0  0  0  0  0  0  0  0  0  0
   -9.5100    9.2150    5.7340 C   0  0  2  0  0  0  0  0  0  0  0  0
  -10.4630    9.5170    4.7130 O   0  0  0  0  0  0  0  0  0  0  0  0
   -9.1290   10.4840    6.4980 C   0  0  1  0  0  0  0  0  0  0  0  0
  -10.2770   10.8840    7.2440 O   0  0  0  0  0  0  0  0  0  0  0  0
 12 21  1  0
 12 13  1  0
 12 11  1  1
 21 19  1  0
 21 22  1  1
 19 17  1  0
 19 20  1  1
 14 17  1  0
 17 18  1  6
 14 15  1  6
 13 14  1  0
 15 16  1  0
 23 24  1  0
 22 23  1  0
 23 25  2  0
  8  6  1  0
  9  8  1  0
  6  7  1  6
  6  5  1  0
  5  4  1  1
 28  5  1  0
  4  2  1  0
 28 29  1  6
 26 28  1  0
 30 29  1  6
 26 27  1  1
  9 26  1  0
  9 10  1  6
 10 11  1  0
  2  3  2  0
  2  1  1  0
 30 39  1  0
 30 31  1  0
 39 37  1  0
 39 40  1  1
 37 35  1  0
 37 38  1  6
 35 32  1  0
 35 36  1  6
 32 33  1  6
 32 31  1  0
 33 34  1  0
M  END
$$$$
