
     RDKit          3D

 31 32  0  0  0  0  0  0  0  0999 V2000
  -11.7420   34.4400  -10.0460 C   0  0  0  0  0  0  0  0  0  0  0  0
  -10.9170   33.6730   -9.0110 C   0  0  0  0  0  0  0  0  0  0  0  0
  -11.7680   33.0800   -7.8690 C   0  0  2  0  0  0  0  0  0  0  0  0
  -11.8190   31.5280   -7.7780 C   0  0  0  0  0  0  0  0  0  0  0  0
  -13.0690   33.7880   -8.0300 C   0  0  0  0  0  0  0  0  0  0  0  0
  -11.3680   33.4370   -6.5040 C   0  0  0  0  0  0  0  0  0  0  0  0
  -12.2120   34.0970   -5.9450 O   0  0  0  0  0  0  0  0  0  0  0  0
  -10.1130   32.9420   -5.8620 O   0  0  0  0  0  0  0  0  0  0  0  0
   -9.9890   33.3830   -4.5310 C   0  0  1  0  0  0  0  0  0  0  0  0
  -10.2250   32.2940   -3.5110 C   0  0  0  0  0  0  0  0  0  0  0  0
   -9.3230   32.3680   -2.2900 C   0  0  1  0  0  0  0  0  0  0  0  0
   -9.4550   31.1180   -1.4630 C   0  0  0  0  0  0  0  0  0  0  0  0
   -7.9020   32.5050   -2.7040 C   0  0  0  0  0  0  0  0  0  0  0  0
   -7.6260   33.3440   -3.6720 C   0  0  0  0  0  0  0  0  0  0  0  0
   -6.2750   33.4770   -4.1870 C   0  0  0  0  0  0  0  0  0  0  0  0
   -5.8790   34.5550   -4.7810 C   0  0  0  0  0  0  0  0  0  0  0  0
   -6.8670   35.6150   -5.1100 C   0  0  2  0  0  0  0  0  0  0  0  0
   -6.9100   36.6460   -3.9940 C   0  0  0  0  0  0  0  0  0  0  0  0
   -8.2180   35.0000   -5.4060 C   0  0  2  0  0  0  0  0  0  0  0  0
   -9.2210   36.0640   -5.7200 C   0  0  0  0  0  0  0  0  0  0  0  0
   -8.8920   36.7310   -7.0380 C   0  0  0  0  0  0  0  0  0  0  0  0
   -9.9960   37.6970   -7.3890 C   0  0  1  0  0  0  0  0  0  0  0  0
  -10.2470   38.5670   -6.3200 O   0  0  0  0  0  0  0  0  0  0  0  0
   -9.5430   38.5420   -8.5260 C   0  0  0  0  0  0  0  0  0  0  0  0
   -9.7300   37.8100   -9.8240 C   0  0  1  0  0  0  0  0  0  0  0  0
  -11.0390   38.0490  -10.2740 O   0  0  0  0  0  0  0  0  0  0  0  0
   -8.7930   38.4070  -10.8350 C   0  0  0  0  0  0  0  0  0  0  0  0
   -9.6480   38.8210  -11.9800 C   0  0  0  0  0  0  0  0  0  0  0  0
   -9.4830   38.3300  -13.0740 O   0  0  0  0  0  0  0  0  0  0  0  0
  -10.5950   39.7270  -11.7780 O   0  0  0  0  0  0  0  0  0  0  0  0
   -8.7190   34.1830   -4.2380 C   0  0  1  0  0  0  0  0  0  0  0  0
 28 29  2  0
 28 30  1  0
 25 26  1  6
 22 23  1  1
  9  8  1  6
  8  6  1  0
  6  7  2  0
 27 28  1  0
 25 27  1  0
 24 25  1  0
 22 24  1  0
 21 22  1  0
 20 21  1  0
 19 20  1  1
 19 17  1  0
 31 19  1  0
 16 17  1  0
 17 18  1  1
 15 16  2  0
 14 15  1  0
 13 14  2  0
 31 14  1  6
 11 13  1  0
 10 11  1  0
 11 12  1  6
 10  9  1  0
  9 31  1  0
  6  3  1  0
  3  2  1  0
  3  4  1  1
  3  5  1  0
  2  1  1  0
M  END
$$$$
