
     RDKit          3D

 27 28  0  0  0  0  0  0  0  0999 V2000
   21.9060   -7.7370   46.5050 C   0  0  0  0  0  0  0  0  0  0  0  0
   23.0720   -7.6970   45.5170 C   0  0  0  0  0  0  0  0  0  0  0  0
   22.8290   -6.6240   44.4440 C   0  0  0  0  0  0  0  0  0  0  0  0
   23.7770   -6.8800   43.2630 C   0  0  0  0  0  0  0  0  0  0  0  0
   23.8500   -5.6580   42.3430 C   0  0  0  0  0  0  0  0  0  0  0  0
   23.3060   -6.0260   40.9580 C   0  0  0  0  0  0  0  0  0  0  0  0
   24.3060   -5.7360   39.8280 C   0  0  2  0  0  0  0  0  0  0  0  0
   25.3500   -4.7070   40.2600 C   0  0  0  0  0  0  0  0  0  0  0  0
   23.5220   -5.1660   38.6410 C   0  0  0  0  0  0  0  0  0  0  0  0
   24.9520   -6.9270   39.4560 C   0  0  0  0  0  0  0  0  0  0  0  0
   25.8690   -7.5370   40.3090 C   0  0  0  0  0  0  0  0  0  0  0  0
   26.4990   -8.7220   39.9340 C   0  0  0  0  0  0  0  0  0  0  0  0
   26.2440   -9.3080   38.6920 C   0  0  0  0  0  0  0  0  0  0  0  0
   26.8500  -10.5070   38.2780 C   0  0  2  0  0  0  0  0  0  0  0  0
   25.8920  -11.6400   38.6260 C   0  0  0  0  0  0  0  0  0  0  0  0
   26.4390  -12.9640   38.1500 C   0  0  2  0  0  0  0  0  0  0  0  0
   25.5220  -14.0040   38.5040 O   0  0  0  0  0  0  0  0  0  0  0  0
   27.7580  -13.2230   38.8320 C   0  0  0  0  0  0  0  0  0  0  0  0
   28.7440  -12.1280   38.4730 C   0  0  0  0  0  0  0  0  0  0  0  0
   28.2260  -10.7750   38.9370 C   0  0  1  0  0  0  0  0  0  0  0  0
   29.2830   -9.7240   38.5590 C   0  0  0  0  0  0  0  0  0  0  0  0
   30.4740   -9.8190   39.5210 C   0  0  0  0  0  0  0  0  0  0  0  0
   30.2650   -8.8380   40.6800 C   0  0  0  0  0  0  0  0  0  0  0  0
   31.4260   -8.8070   41.5150 O   0  0  0  0  0  0  0  0  0  0  0  0
   25.3190   -8.6960   37.8520 C   0  0  0  0  0  0  0  0  0  0  0  0
   25.0810   -9.3000   36.6530 O   0  0  0  0  0  0  0  0  0  0  0  0
   24.6810   -7.5190   38.2240 C   0  0  0  0  0  0  0  0  0  0  0  0
  1  2  1  0
  2  3  1  0
  3  4  1  0
  4  5  1  0
  5  6  1  0
  6  7  1  0
  7  8  1  1
  7  9  1  0
  7 10  1  0
 10 11  2  0
 10 27  1  0
 11 12  1  0
 12 13  2  0
 14 13  1  1
 13 25  1  0
 14 15  1  0
 14 20  1  0
 15 16  1  0
 16 18  1  0
 16 17  1  1
 18 19  1  0
 19 20  1  0
 20 21  1  6
 21 22  1  0
 22 23  1  0
 23 24  1  0
 25 27  2  0
 25 26  1  0
M  END
$$$$
