
     RDKit          3D

 17 18  0  0  0  0  0  0  0  0999 V2000
   -6.1860    5.0050   -2.5620 C   0  0  0  0  0  0  0  0  0  0  0  0
   -5.8750    6.4560   -2.9920 C   0  0  0  0  0  0  0  0  0  0  0  0
   -4.8900    7.0770   -2.0520 C   0  0  0  0  0  0  0  0  0  0  0  0
   -5.0860    7.1100   -0.8590 O   0  0  0  0  0  0  0  0  0  0  0  0
   -3.7170    7.5700   -2.6870 N   0  0  0  0  0  0  0  0  0  0  0  0
   -2.5980    8.1510   -2.0790 C   0  0  0  0  0  0  0  0  0  0  0  0
   -1.4510    8.3600   -2.7030 N   0  0  0  0  0  0  0  0  0  0  0  0
   -0.4390    8.7540   -1.7780 C   0  0  0  0  0  0  0  0  0  0  0  0
    0.8910    9.0650   -2.3300 C   0  0  0  0  0  0  0  0  0  0  0  0
    1.8600    9.7590   -1.5850 C   0  0  0  0  0  0  0  0  0  0  0  0
    3.1300    9.9730   -2.1240 C   0  0  0  0  0  0  0  0  0  0  0  0
    3.4240    9.4840   -3.4140 C   0  0  0  0  0  0  0  0  0  0  0  0
    4.9760    9.7500   -4.0990 Cl  0  0  0  0  0  0  0  0  0  0  0  0
    2.5030    8.7990   -4.1690 C   0  0  0  0  0  0  0  0  0  0  0  0
    1.2380    8.5770   -3.6300 C   0  0  0  0  0  0  0  0  0  0  0  0
   -0.8600    8.8640   -0.4900 C   0  0  0  0  0  0  0  0  0  0  0  0
   -2.5230    8.4510   -0.3260 S   0  0  0  0  0  0  0  0  0  0  0  0
  3  2  1  0
  2  1  1  0
  5  6  1  0
  6 17  1  0
  6  7  2  0
  8 16  2  0
  7  8  1  0
  8  9  1  0
 17 16  1  0
  3  4  2  0
  3  5  1  0
  9 10  2  0
  9 15  1  0
 10 11  1  0
 11 12  2  0
 12 13  1  0
 12 14  1  0
 14 15  2  0
M  END
$$$$
