
     RDKit          3D

 23 25  0  0  0  0  0  0  0  0999 V2000
   23.6299    9.2630   10.1249 C   0  0  0  0  0  0  0  0  0  0  0  0
   23.7408    8.2203   11.1269 C   0  0  0  0  0  0  0  0  0  0  0  0
   23.5446    6.8173   10.5891 C   0  0  0  0  0  0  0  0  0  0  0  0
   22.9102    6.6838    9.5691 O   0  0  0  0  0  0  0  0  0  0  0  0
   24.4127    5.7804   11.0166 N   0  0  0  0  0  0  0  0  0  0  0  0
   24.4474    4.5666   10.1874 C   0  0  0  0  0  0  0  0  0  0  0  0
   25.8283    4.1122    9.8494 C   0  0  0  0  0  0  0  0  0  0  0  0
   27.0114    4.5175   10.3751 C   0  0  0  0  0  0  0  0  0  0  0  0
   28.0443    4.0012    9.5359 C   0  0  0  0  0  0  0  0  0  0  0  0
   29.5210    4.0678    9.6930 C   0  0  0  0  0  0  0  0  0  0  0  0
   27.4506    3.3428    8.4749 N   0  0  0  0  0  0  0  0  0  0  0  0
   26.0533    3.3528    8.7692 O   0  0  0  0  0  0  0  0  0  0  0  0
   25.1316    5.8458   12.1761 C   0  0  0  0  0  0  0  0  0  0  0  0
   24.5495    5.6313   13.3255 N   0  0  0  0  0  0  0  0  0  0  0  0
   25.3819    6.0137   14.3789 C   0  0  0  0  0  0  0  0  0  0  0  0
   24.9206    5.7561   15.7315 C   0  0  0  0  0  0  0  0  0  0  0  0
   25.5589    6.3489   16.8422 C   0  0  0  0  0  0  0  0  0  0  0  0
   25.0354    6.2447   18.0676 C   0  0  0  0  0  0  0  0  0  0  0  0
   23.8737    5.5212   18.3273 C   0  0  0  0  0  0  0  0  0  0  0  0
   23.2181    4.9618   17.2776 C   0  0  0  0  0  0  0  0  0  0  0  0
   23.7350    5.0846   15.9647 C   0  0  0  0  0  0  0  0  0  0  0  0
   26.5858    6.5088   13.9708 C   0  0  0  0  0  0  0  0  0  0  0  0
   26.8089    6.3405   12.2668 S   0  0  0  0  0  0  0  0  0  0  0  0
  4  3  2  0
  3  2  1  0
  3  5  1  0
  2  1  1  0
  5  6  1  0
  5 13  1  0
  6  7  1  0
  7 12  4  0
  7  8  4  0
 12 11  4  0
 11  9  4  0
  9 10  1  0
  9  8  4  0
 13 23  4  0
 13 14  4  0
 23 22  4  0
 22 15  4  0
 15 14  4  0
 15 16  1  0
 16 17  4  0
 16 21  4  0
 17 18  4  0
 18 19  4  0
 19 20  4  0
 20 21  4  0
M  END
$$$$
