
     RDKit          3D

 23 25  0  0  0  0  0  0  0  0999 V2000
   28.1600    1.8350    8.6120 C   0  0  0  0  0  0  0  0  0  0  0  0
   27.4020    3.1260    8.3880 C   0  0  0  0  0  0  0  0  0  0  0  0
   27.5920    4.1130    9.5200 C   0  0  0  0  0  0  0  0  0  0  0  0
   28.4620    3.9520   10.3630 O   0  0  0  0  0  0  0  0  0  0  0  0
   26.7720    5.2590    9.5740 N   0  0  0  0  0  0  0  0  0  0  0  0
   26.4240    5.9000    8.3050 C   0  0  0  0  0  0  0  0  0  0  0  0
   24.9820    6.2530    8.2010 C   0  0  0  0  0  0  0  0  0  0  0  0
   23.9030    5.4810    8.0190 C   0  0  0  0  0  0  0  0  0  0  0  0
   22.7800    6.3220    8.0840 C   0  0  0  0  0  0  0  0  0  0  0  0
   21.3310    5.9530    7.9980 C   0  0  0  0  0  0  0  0  0  0  0  0
   23.1860    7.5960    8.2850 N   0  0  0  0  0  0  0  0  0  0  0  0
   24.6030    7.5380    8.3540 O   0  0  0  0  0  0  0  0  0  0  0  0
   26.5890    5.9930   10.7460 C   0  0  0  0  0  0  0  0  0  0  0  0
   25.9980    7.1540   10.7160 N   0  0  0  0  0  0  0  0  0  0  0  0
   25.7290    7.5930   11.9920 C   0  0  0  0  0  0  0  0  0  0  0  0
   24.9210    8.8150   12.1440 C   0  0  0  0  0  0  0  0  0  0  0  0
   23.9920    8.9260   13.1760 C   0  0  0  0  0  0  0  0  0  0  0  0
   23.0700    9.9590   13.1800 C   0  0  0  0  0  0  0  0  0  0  0  0
   23.1160   10.9400   12.2120 C   0  0  0  0  0  0  0  0  0  0  0  0
   24.0570   10.8670   11.2080 C   0  0  0  0  0  0  0  0  0  0  0  0
   24.9480    9.8090   11.1610 C   0  0  0  0  0  0  0  0  0  0  0  0
   26.1750    6.7690   12.9780 C   0  0  0  0  0  0  0  0  0  0  0  0
   26.9370    5.3660   12.3310 S   0  0  0  0  0  0  0  0  0  0  0  0
  4  3  2  0
  3  2  1  0
  3  5  1  0
  2  1  1  0
  5  6  1  0
  5 13  1  0
  6  7  1  0
  7 12  1  0
  7  8  2  0
 12 11  1  0
 11  9  2  0
  9 10  1  0
  9  8  1  0
 13 23  1  0
 13 14  2  0
 23 22  1  0
 22 15  2  0
 15 14  1  0
 15 16  1  0
 16 17  2  0
 16 21  1  0
 17 18  1  0
 18 19  2  0
 19 20  1  0
 20 21  2  0
M  END
$$$$
