
     RDKit          3D

 71 72  0  0  0  0  0  0  0  0999 V2000
   87.9922   15.8632  174.5740 C   0  0  0  0  0  0  0  0  0  0  0  0
   87.3525   14.7192  175.2802 C   0  0  0  0  0  0  0  0  0  0  0  0
   86.2262   15.2540  176.1540 C   0  0  0  0  0  0  0  0  0  0  0  0
   84.8970   14.7239  175.5945 C   0  0  0  0  0  0  0  0  0  0  0  0
   83.7915   15.7696  175.6847 C   0  0  0  0  0  0  0  0  0  0  0  0
   83.9164   16.8730  174.6718 C   0  0  0  0  0  0  0  0  0  0  0  0
   84.0247   18.2688  175.2159 C   0  0  0  0  0  0  0  0  0  0  0  0
   82.7567   19.1162  174.9266 C   0  0  0  0  0  0  0  0  0  0  0  0
   82.4097   19.1618  173.4319 C   0  0  0  0  0  0  0  0  0  0  0  0
   83.6654   19.2093  172.5849 C   0  0  0  0  0  0  0  0  0  0  0  0
   84.1435   20.5794  172.2627 C   0  0  0  0  0  0  0  0  0  0  0  0
   82.9511   21.3583  171.7397 C   0  0  0  0  0  0  0  0  0  0  0  0
   83.2732   22.2799  170.5499 C   0  0  0  0  0  0  0  0  0  0  0  0
   84.8124   22.5120  170.5054 C   0  0  0  0  0  0  0  0  0  0  0  0
   85.2823   22.3790  169.0696 C   0  0  0  0  0  0  0  0  0  0  0  0
   84.3953   21.5000  168.2230 C   0  0  0  0  0  0  0  0  0  0  0  0
   85.2294   20.5741  167.3886 C   0  0  0  0  0  0  0  0  0  0  0  0
   86.5399   20.1616  168.0922 C   0  0  0  0  0  0  0  0  0  0  0  0
   87.5358   21.3079  168.0501 C   0  0  0  0  0  0  0  0  0  0  0  0
   88.9919   20.8008  168.1410 C   0  0  0  0  0  0  0  0  0  0  0  0
   89.5546   21.0195  169.5558 C   0  0  0  0  0  0  0  0  0  0  0  0
   90.1255   22.4508  169.5403 C   0  0  0  0  0  0  0  0  0  0  0  0
   91.4674   22.5825  170.2738 C   0  0  0  0  0  0  0  0  0  0  0  0
   91.5731   24.0074  170.8586 C   0  0  0  0  0  0  0  0  0  0  0  0
   93.0558   24.5157  170.9256 C   0  0  0  0  0  0  0  0  0  0  0  0
   93.1095   25.9929  171.0299 C   0  0  0  0  0  0  0  0  0  0  0  0
   93.2788   26.5490  172.1662 O   0  0  0  0  0  0  0  0  0  0  0  0
   92.6340   26.7155  169.9960 N   0  0  0  0  0  0  0  0  0  0  0  0
   93.3693   27.8770  169.5602 C   0  0  2  0  0  0  0  0  0  0  0  0
   94.1424   28.4598  170.7767 C   0  0  0  0  0  0  0  0  0  0  0  0
   94.5686   29.7224  170.3626 O   0  0  0  0  0  0  0  0  0  0  0  0
   95.9318   30.0722  170.8143 C   0  0  1  0  0  0  0  0  0  0  0  0
   96.0497   29.7939  172.2182 O   0  0  0  0  0  0  0  0  0  0  0  0
   95.9069   28.4117  172.5585 C   0  0  2  0  0  0  0  0  0  0  0  0
   96.0902   28.3589  174.0702 C   0  0  0  0  0  0  0  0  0  0  0  0
   95.2626   27.4522  174.6355 O   0  0  0  0  0  0  0  0  0  0  0  0
   96.8710   27.5513  171.7677 C   0  0  1  0  0  0  0  0  0  0  0  0
   96.5937   26.1377  171.9854 O   0  0  0  0  0  0  0  0  0  0  0  0
   95.7891   25.8935  173.1216 C   0  0  0  0  0  0  0  0  0  0  0  0
   95.8999   24.6336  173.7846 C   0  0  0  0  0  0  0  0  0  0  0  0
   95.9268   23.4691  173.0105 C   0  0  0  0  0  0  0  0  0  0  0  0
   95.9311   22.1919  173.5757 C   0  0  0  0  0  0  0  0  0  0  0  0
   95.8925   22.0254  174.9695 C   0  0  0  0  0  0  0  0  0  0  0  0
   95.7718   20.7340  175.6026 C   0  0  1  0  0  0  0  0  0  0  0  0
   96.7542   19.7382  174.9546 C   0  0  0  0  0  0  0  0  0  0  0  0
   95.9887   20.7335  177.1100 C   0  0  0  0  0  0  0  0  0  0  0  0
   94.3351   20.1444  175.3510 C   0  0  0  0  0  0  0  0  0  0  0  0
   95.9028   23.2003  175.7586 C   0  0  0  0  0  0  0  0  0  0  0  0
   95.9266   24.4801  175.1611 C   0  0  0  0  0  0  0  0  0  0  0  0
   96.6965   27.7818  170.2822 C   0  0  2  0  0  0  0  0  0  0  0  0
   97.7052   27.0852  169.6197 O   0  0  0  0  0  0  0  0  0  0  0  0
   96.8928   29.2625  170.0393 C   0  0  2  0  0  0  0  0  0  0  0  0
   98.2179   29.6706  170.3734 O   0  0  0  0  0  0  0  0  0  0  0  0
   92.5026   28.9115  168.9539 C   0  0  1  0  0  0  0  0  0  0  0  0
   93.2865   30.0959  168.8098 O   0  0  0  0  0  0  0  0  0  0  0  0
   91.9227   28.5391  167.5523 C   0  0  2  0  0  0  0  0  0  0  0  0
   92.2204   29.6090  166.6360 O   0  0  0  0  0  0  0  0  0  0  0  0
   90.3955   28.3143  167.6527 C   0  0  0  0  0  0  0  0  0  0  0  0
   89.8844   27.4171  166.4827 C   0  0  0  0  0  0  0  0  0  0  0  0
   89.8049   25.9430  166.9564 C   0  0  0  0  0  0  0  0  0  0  0  0
   89.2037   25.0474  165.8271 C   0  0  0  0  0  0  0  0  0  0  0  0
   87.7797   25.4544  165.5316 C   0  0  0  0  0  0  0  0  0  0  0  0
   87.7097   26.6018  164.5428 C   0  0  0  0  0  0  0  0  0  0  0  0
   86.9298   26.2877  163.2773 C   0  0  0  0  0  0  0  0  0  0  0  0
   85.9687   27.4513  163.0512 C   0  0  0  0  0  0  0  0  0  0  0  0
   86.4191   28.3367  161.8631 C   0  0  0  0  0  0  0  0  0  0  0  0
   85.1705   28.4552  160.9963 C   0  0  0  0  0  0  0  0  0  0  0  0
   85.0671   29.8235  160.4055 C   0  0  0  0  0  0  0  0  0  0  0  0
   84.1238   29.7188  159.1702 C   0  0  0  0  0  0  0  0  0  0  0  0
   83.5774   31.0786  158.8145 C   0  0  0  0  0  0  0  0  0  0  0  0
   83.6703   32.0607  160.0327 C   0  0  0  0  0  0  0  0  0  0  0  0
 32 52  1  0
 32 31  1  6
 32 33  1  0
 34 35  1  1
 35 36  1  0
 34 37  1  0
 33 34  1  0
 50 37  1  0
 37 38  1  1
 52 50  1  0
 50 51  1  6
 52 53  1  6
 70 71  1  0
 69 70  1  0
 68 69  1  0
 67 68  1  0
 66 67  1  0
 65 66  1  0
 64 65  1  0
 63 64  1  0
 62 63  1  0
 61 62  1  0
 60 61  1  0
 59 60  1  0
 58 59  1  0
 56 58  1  0
 56 57  1  6
 54 56  1  0
 54 55  1  1
 29 54  1  0
 29 30  1  6
 29 28  1  0
 30 31  1  0
 38 39  1  0
 39 40  1  0
 40 41  4  0
 40 49  4  0
 41 42  4  0
 42 43  4  0
 43 44  1  0
 43 48  4  0
 44 45  1  1
 44 46  1  0
 44 47  1  0
 48 49  4  0
 28 26  1  0
 26 27  2  0
 26 25  1  0
 25 24  1  0
 24 23  1  0
 23 22  1  0
 22 21  1  0
 21 20  1  0
 20 19  1  0
 19 18  1  0
 18 17  1  0
 17 16  1  0
 16 15  1  0
 15 14  1  0
 14 13  1  0
 13 12  1  0
 12 11  1  0
 11 10  1  0
 10  9  1  0
  9  8  1  0
  8  7  1  0
  7  6  1  0
  6  5  1  0
  5  4  1  0
  4  3  1  0
  3  2  1  0
  2  1  1  0
M  END
$$$$
