
     RDKit          3D

 71 72  0  0  0  0  0  0  0  0999 V2000
   86.8190   16.1840  170.4710 C   0  0  0  0  0  0  0  0  0  0  0  0
   87.0660   14.8960  171.2520 C   0  0  0  0  0  0  0  0  0  0  0  0
   87.0630   15.1950  172.7480 C   0  0  0  0  0  0  0  0  0  0  0  0
   87.0020   13.8870  173.5050 C   0  0  0  0  0  0  0  0  0  0  0  0
   87.4330   14.0370  174.9720 C   0  0  0  0  0  0  0  0  0  0  0  0
   86.5860   15.0550  175.7470 C   0  0  0  0  0  0  0  0  0  0  0  0
   85.1550   14.6120  175.9980 C   0  0  0  0  0  0  0  0  0  0  0  0
   84.6400   15.2730  177.3000 C   0  0  0  0  0  0  0  0  0  0  0  0
   83.4180   16.1800  177.0860 C   0  0  0  0  0  0  0  0  0  0  0  0
   83.8240   17.4290  176.3010 C   0  0  0  0  0  0  0  0  0  0  0  0
   82.7530   18.5230  176.3070 C   0  0  0  0  0  0  0  0  0  0  0  0
   83.2890   19.6890  175.4430 C   0  0  0  0  0  0  0  0  0  0  0  0
   82.2640   20.1170  174.4090 C   0  0  0  0  0  0  0  0  0  0  0  0
   82.9340   20.8320  173.2120 C   0  0  0  0  0  0  0  0  0  0  0  0
   82.6830   19.9840  171.9700 C   0  0  0  0  0  0  0  0  0  0  0  0
   83.2690   20.5650  170.6930 C   0  0  0  0  0  0  0  0  0  0  0  0
   84.7740   20.6400  170.8120 C   0  0  0  0  0  0  0  0  0  0  0  0
   85.4940   20.2040  169.5370 C   0  0  0  0  0  0  0  0  0  0  0  0
   86.5510   21.2550  169.1280 C   0  0  0  0  0  0  0  0  0  0  0  0
   87.9190   20.8970  169.6770 C   0  0  0  0  0  0  0  0  0  0  0  0
   88.9640   21.9540  169.2170 C   0  0  0  0  0  0  0  0  0  0  0  0
   90.0240   22.0510  170.3190 C   0  0  0  0  0  0  0  0  0  0  0  0
   91.1300   23.0840  169.9970 C   0  0  0  0  0  0  0  0  0  0  0  0
   92.0610   23.1740  171.2050 C   0  0  0  0  0  0  0  0  0  0  0  0
   93.1630   24.2230  171.0180 C   0  0  0  0  0  0  0  0  0  0  0  0
   92.6200   25.6330  171.1720 C   0  0  0  0  0  0  0  0  0  0  0  0
   91.8660   25.9320  172.1040 O   0  0  0  0  0  0  0  0  0  0  0  0
   93.0040   26.4900  170.2200 N   0  0  0  0  0  0  0  0  0  0  0  0
   92.5900   27.8900  170.3230 C   0  0  1  0  0  0  0  0  0  0  0  0
   93.5900   28.6130  171.2510 C   0  0  0  0  0  0  0  0  0  0  0  0
   94.8620   28.5180  170.6310 O   0  0  0  0  0  0  0  0  0  0  0  0
   95.9340   29.1090  171.3580 C   0  0  1  0  0  0  0  0  0  0  0  0
   96.1110   28.4510  172.6230 O   0  0  0  0  0  0  0  0  0  0  0  0
   96.4060   27.0570  172.4860 C   0  0  2  0  0  0  0  0  0  0  0  0
   96.5550   26.5780  173.9410 C   0  0  0  0  0  0  0  0  0  0  0  0
   96.5610   25.1500  173.9490 O   0  0  0  0  0  0  0  0  0  0  0  0
   97.6750   26.8480  171.6730 C   0  0  2  0  0  0  0  0  0  0  0  0
   98.8270   27.4440  172.2860 O   0  0  0  0  0  0  0  0  0  0  0  0
   99.6190   26.4700  173.0350 C   0  0  0  0  0  0  0  0  0  0  0  0
  100.6020   25.7280  172.3180 C   0  0  0  0  0  0  0  0  0  0  0  0
  100.5590   24.3250  172.3690 C   0  0  0  0  0  0  0  0  0  0  0  0
  101.5120   23.5500  171.7150 C   0  0  0  0  0  0  0  0  0  0  0  0
  102.5610   24.1370  170.9910 C   0  0  0  0  0  0  0  0  0  0  0  0
  103.5540   23.3310  170.3160 C   0  0  2  0  0  0  0  0  0  0  0  0
  103.3760   23.3810  168.7940 C   0  0  0  0  0  0  0  0  0  0  0  0
  103.4950   21.8500  170.7400 C   0  0  0  0  0  0  0  0  0  0  0  0
  104.9760   23.8390  170.6280 C   0  0  0  0  0  0  0  0  0  0  0  0
  102.6180   25.5440  170.9640 C   0  0  0  0  0  0  0  0  0  0  0  0
  101.6530   26.3350  171.6220 C   0  0  0  0  0  0  0  0  0  0  0  0
   97.5280   27.5230  170.3260 C   0  0  2  0  0  0  0  0  0  0  0  0
   98.7680   27.4410  169.6420 O   0  0  0  0  0  0  0  0  0  0  0  0
   97.1840   28.9810  170.5290 C   0  0  1  0  0  0  0  0  0  0  0  0
   96.9780   29.6040  169.2640 O   0  0  0  0  0  0  0  0  0  0  0  0
   92.5640   28.5780  168.9690 C   0  0  2  0  0  0  0  0  0  0  0  0
   92.1080   29.8950  169.2280 O   0  0  0  0  0  0  0  0  0  0  0  0
   91.6300   27.8990  167.9460 C   0  0  2  0  0  0  0  0  0  0  0  0
   91.6850   28.6520  166.6900 O   0  0  0  0  0  0  0  0  0  0  0  0
   90.1960   27.8290  168.4880 C   0  0  0  0  0  0  0  0  0  0  0  0
   89.1780   27.4020  167.4070 C   0  0  0  0  0  0  0  0  0  0  0  0
   89.4960   26.0010  166.8800 C   0  0  0  0  0  0  0  0  0  0  0  0
   88.2840   25.4090  166.1240 C   0  0  0  0  0  0  0  0  0  0  0  0
   88.0820   26.1120  164.7700 C   0  0  0  0  0  0  0  0  0  0  0  0
   86.9870   25.3580  163.9720 C   0  0  0  0  0  0  0  0  0  0  0  0
   87.0170   25.7360  162.4860 C   0  0  0  0  0  0  0  0  0  0  0  0
   86.1200   26.9500  162.3140 C   0  0  0  0  0  0  0  0  0  0  0  0
   86.0490   27.3870  160.8560 C   0  0  0  0  0  0  0  0  0  0  0  0
   85.3800   28.7490  160.9160 C   0  0  0  0  0  0  0  0  0  0  0  0
   85.2460   29.3820  159.5440 C   0  0  0  0  0  0  0  0  0  0  0  0
   84.2520   30.5520  159.6660 C   0  0  0  0  0  0  0  0  0  0  0  0
   84.8690   31.8300  159.1470 C   0  0  0  0  0  0  0  0  0  0  0  0
   83.8220   32.9580  159.1270 C   0  0  0  0  0  0  0  0  0  0  0  0
 32 52  1  0
 32 31  1  6
 32 33  1  0
 34 35  1  1
 35 36  1  0
 34 37  1  0
 33 34  1  0
 50 37  1  0
 37 38  1  1
 52 50  1  0
 50 51  1  1
 52 53  1  6
 70 71  1  0
 69 70  1  0
 68 69  1  0
 67 68  1  0
 66 67  1  0
 65 66  1  0
 64 65  1  0
 63 64  1  0
 62 63  1  0
 61 62  1  0
 60 61  1  0
 59 60  1  0
 58 59  1  0
 56 58  1  0
 56 57  1  6
 54 56  1  0
 54 55  1  1
 29 54  1  0
 29 30  1  1
 29 28  1  0
 30 31  1  0
 38 39  1  0
 39 40  1  0
 40 41  2  0
 40 49  1  0
 41 42  1  0
 42 43  2  0
 43 44  1  0
 43 48  1  0
 44 45  1  6
 44 46  1  0
 44 47  1  0
 48 49  2  0
 28 26  1  0
 26 27  2  0
 26 25  1  0
 25 24  1  0
 24 23  1  0
 23 22  1  0
 22 21  1  0
 21 20  1  0
 20 19  1  0
 19 18  1  0
 18 17  1  0
 17 16  1  0
 16 15  1  0
 15 14  1  0
 14 13  1  0
 13 12  1  0
 12 11  1  0
 11 10  1  0
 10  9  1  0
  9  8  1  0
  8  7  1  0
  7  6  1  0
  6  5  1  0
  5  4  1  0
  4  3  1  0
  3  2  1  0
  2  1  1  0
M  END
$$$$
