
     RDKit          3D

 67 68  0  0  0  0  0  0  0  0999 V2000
  162.7580   18.2680  207.0880 C   0  0  0  0  0  0  0  0  0  0  0  0
  162.5970   16.8980  207.7570 C   0  0  0  0  0  0  0  0  0  0  0  0
  162.8550   17.0160  209.2630 C   0  0  0  0  0  0  0  0  0  0  0  0
  162.4950   15.6930  209.9330 C   0  0  0  0  0  0  0  0  0  0  0  0
  163.0350   15.6240  211.3670 C   0  0  0  0  0  0  0  0  0  0  0  0
  162.3550   16.6350  212.3080 C   0  0  0  0  0  0  0  0  0  0  0  0
  160.8470   16.3890  212.4290 C   0  0  0  0  0  0  0  0  0  0  0  0
  160.3160   16.9690  213.7550 C   0  0  0  0  0  0  0  0  0  0  0  0
  159.1050   17.8820  213.5140 C   0  0  0  0  0  0  0  0  0  0  0  0
  159.5950   19.2640  213.0770 C   0  0  0  0  0  0  0  0  0  0  0  0
  158.4430   20.0990  212.5120 C   0  0  0  0  0  0  0  0  0  0  0  0
  159.0170   21.3540  211.8440 C   0  0  0  0  0  0  0  0  0  0  0  0
  157.9340   22.0920  211.0510 C   0  0  0  0  0  0  0  0  0  0  0  0
  158.5510   22.7920  209.8280 C   0  0  0  0  0  0  0  0  0  0  0  0
  158.5920   21.8220  208.6380 C   0  0  0  0  0  0  0  0  0  0  0  0
  158.9380   22.5630  207.3380 C   0  0  0  0  0  0  0  0  0  0  0  0
  160.4480   22.8440  207.2370 C   0  0  0  0  0  0  0  0  0  0  0  0
  161.1670   21.7910  206.3730 C   0  0  0  0  0  0  0  0  0  0  0  0
  162.3200   22.4380  205.5870 C   0  0  0  0  0  0  0  0  0  0  0  0
  163.5620   22.5650  206.4760 C   0  0  0  0  0  0  0  0  0  0  0  0
  164.4870   23.6760  205.9560 C   0  0  0  0  0  0  0  0  0  0  0  0
  165.4410   24.0600  207.0870 C   0  0  0  0  0  0  0  0  0  0  0  0
  166.5760   24.9620  206.5920 C   0  0  0  0  0  0  0  0  0  0  0  0
  167.6800   24.9330  207.6570 C   0  0  0  0  0  0  0  0  0  0  0  0
  168.7430   26.0050  207.3940 C   0  0  0  0  0  0  0  0  0  0  0  0
  168.2220   27.4150  207.7170 C   0  0  0  0  0  0  0  0  0  0  0  0
  167.6310   27.6450  208.7720 O   0  0  0  0  0  0  0  0  0  0  0  0
  168.4690   28.3420  206.7720 N   0  0  0  0  0  0  0  0  0  0  0  0
  168.0440   29.7460  206.9260 C   0  0  1  0  0  0  0  0  0  0  0  0
  169.0490   30.4430  207.8500 C   0  0  0  0  0  0  0  0  0  0  0  0
  170.3690   30.2730  207.3070 O   0  0  0  0  0  0  0  0  0  0  0  0
  171.3930   30.9430  208.0650 C   0  0  1  0  0  0  0  0  0  0  0  0
  171.5980   30.3490  209.3510 O   0  0  0  0  0  0  0  0  0  0  0  0
  171.9180   28.9510  209.3030 C   0  0  2  0  0  0  0  0  0  0  0  0
  172.0040   28.5190  210.7790 C   0  0  0  0  0  0  0  0  0  0  0  0
  171.9760   27.0920  210.8950 O   0  0  0  0  0  0  0  0  0  0  0  0
  173.2170   28.6980  208.4880 C   0  0  2  0  0  0  0  0  0  0  0  0
  174.4100   29.1440  209.1640 O   0  0  0  0  0  0  0  0  0  0  0  0
  175.1010   28.1200  209.9200 C   0  0  0  0  0  0  0  0  0  0  0  0
  176.1180   27.4920  209.1850 C   0  0  0  0  0  0  0  0  0  0  0  0
  176.1650   26.0950  209.1000 C   0  0  0  0  0  0  0  0  0  0  0  0
  177.1820   25.4630  208.3810 C   0  0  0  0  0  0  0  0  0  0  0  0
  178.1620   26.2250  207.7480 C   0  0  0  0  0  0  0  0  0  0  0  0
  178.1230   27.6170  207.8350 C   0  0  0  0  0  0  0  0  0  0  0  0
  177.1070   28.2480  208.5540 C   0  0  0  0  0  0  0  0  0  0  0  0
  173.1320   29.4250  207.1490 C   0  0  2  0  0  0  0  0  0  0  0  0
  174.4100   29.4210  206.5260 O   0  0  0  0  0  0  0  0  0  0  0  0
  172.6950   30.8760  207.3120 C   0  0  1  0  0  0  0  0  0  0  0  0
  172.5130   31.4740  206.0160 O   0  0  0  0  0  0  0  0  0  0  0  0
  168.0280   30.4690  205.5650 C   0  0  2  0  0  0  0  0  0  0  0  0
  167.5120   31.7940  205.7390 O   0  0  0  0  0  0  0  0  0  0  0  0
  167.1990   29.7330  204.4930 C   0  0  2  0  0  0  0  0  0  0  0  0
  167.3890   30.4330  203.2540 O   0  0  0  0  0  0  0  0  0  0  0  0
  165.7080   29.6820  204.8740 C   0  0  0  0  0  0  0  0  0  0  0  0
  164.8230   29.3030  203.6720 C   0  0  0  0  0  0  0  0  0  0  0  0
  165.0160   27.8320  203.2820 C   0  0  0  0  0  0  0  0  0  0  0  0
  163.7770   27.2990  202.5350 C   0  0  0  0  0  0  0  0  0  0  0  0
  163.6310   27.9610  201.1510 C   0  0  0  0  0  0  0  0  0  0  0  0
  162.6100   27.1760  200.3030 C   0  0  0  0  0  0  0  0  0  0  0  0
  162.5750   27.6930  198.8530 C   0  0  0  0  0  0  0  0  0  0  0  0
  161.7690   28.9950  198.7790 C   0  0  0  0  0  0  0  0  0  0  0  0
  161.6220   29.4620  197.3260 C   0  0  0  0  0  0  0  0  0  0  0  0
  161.1370   30.9200  197.3320 C   0  0  0  0  0  0  0  0  0  0  0  0
  160.4910   31.2790  195.9890 C   0  0  0  0  0  0  0  0  0  0  0  0
  159.5910   32.5180  196.1330 C   0  0  0  0  0  0  0  0  0  0  0  0
  160.4350   33.7950  196.1560 C   0  0  0  0  0  0  0  0  0  0  0  0
  159.5390   35.0170  195.9120 C   0  0  0  0  0  0  0  0  0  0  0  0
 34 37  1  0
 34 35  1  1
 33 34  1  0
 46 37  1  0
 37 38  1  1
 48 46  1  0
 46 47  1  1
 32 48  1  0
 48 49  1  6
 32 31  1  6
 32 33  1  0
 35 36  1  0
 66 67  1  0
 65 66  1  0
 64 65  1  0
 63 64  1  0
 62 63  1  0
 61 62  1  0
 60 61  1  0
 59 60  1  0
 58 59  1  0
 57 58  1  0
 56 57  1  0
 55 56  1  0
 54 55  1  0
 52 54  1  0
 52 53  1  6
 50 52  1  0
 50 51  1  1
 29 50  1  0
 29 30  1  1
 29 28  1  0
 30 31  1  0
 38 39  1  0
 39 40  1  0
 40 41  2  0
 40 45  1  0
 41 42  1  0
 42 43  2  0
 43 44  1  0
 44 45  2  0
 28 26  1  0
 26 27  2  0
 26 25  1  0
 25 24  1  0
 24 23  1  0
 23 22  1  0
 22 21  1  0
 21 20  1  0
 20 19  1  0
 19 18  1  0
 18 17  1  0
 17 16  1  0
 16 15  1  0
 15 14  1  0
 14 13  1  0
 13 12  1  0
 12 11  1  0
 11 10  1  0
 10  9  1  0
  9  8  1  0
  8  7  1  0
  7  6  1  0
  6  5  1  0
  5  4  1  0
  4  3  1  0
  3  2  1  0
  2  1  1  0
M  END
$$$$
