
     RDKit          3D

 63 63  0  0  0  0  0  0  0  0999 V2000
   -7.6910  -15.5360   18.9970 C   0  0  0  0  0  0  0  0  0  0  0  0
   -7.9380  -14.3260   19.9050 C   0  0  0  0  0  0  0  0  0  0  0  0
   -7.7450  -14.7400   21.3610 C   0  0  0  0  0  0  0  0  0  0  0  0
   -8.0030  -13.5480   22.2770 C   0  0  0  0  0  0  0  0  0  0  0  0
   -8.3700  -13.9870   23.7000 C   0  0  0  0  0  0  0  0  0  0  0  0
   -7.3570  -14.9710   24.2970 C   0  0  0  0  0  0  0  0  0  0  0  0
   -6.0240  -14.3150   24.6410 C   0  0  0  0  0  0  0  0  0  0  0  0
   -5.4630  -14.9200   25.9480 C   0  0  0  0  0  0  0  0  0  0  0  0
   -4.2800  -15.8580   25.6880 C   0  0  0  0  0  0  0  0  0  0  0  0
   -4.7330  -17.1070   24.9170 C   0  0  0  0  0  0  0  0  0  0  0  0
   -3.6830  -18.2180   24.9800 C   0  0  0  0  0  0  0  0  0  0  0  0
   -4.1730  -19.4290   24.1660 C   0  0  0  0  0  0  0  0  0  0  0  0
   -3.2250  -19.7170   23.0020 C   0  0  0  0  0  0  0  0  0  0  0  0
   -3.9210  -20.5330   21.9030 C   0  0  0  0  0  0  0  0  0  0  0  0
   -3.7380  -19.8030   20.5720 C   0  0  0  0  0  0  0  0  0  0  0  0
   -4.4130  -20.5500   19.4310 C   0  0  0  0  0  0  0  0  0  0  0  0
   -5.9250  -20.3180   19.4370 C   0  0  0  0  0  0  0  0  0  0  0  0
   -6.4580  -19.9120   18.0520 C   0  0  0  0  0  0  0  0  0  0  0  0
   -7.5240  -20.9000   17.5680 C   0  0  0  0  0  0  0  0  0  0  0  0
   -8.8350  -20.6520   18.2870 C   0  0  0  0  0  0  0  0  0  0  0  0
   -9.8940  -21.6800   17.8390 C   0  0  0  0  0  0  0  0  0  0  0  0
  -10.9310  -21.7840   18.9520 C   0  0  0  0  0  0  0  0  0  0  0  0
  -12.0330  -22.8000   18.6290 C   0  0  0  0  0  0  0  0  0  0  0  0
  -12.9500  -22.8510   19.8440 C   0  0  0  0  0  0  0  0  0  0  0  0
  -14.0670  -23.8780   19.6540 C   0  0  0  0  0  0  0  0  0  0  0  0
  -13.5410  -25.3040   19.8500 C   0  0  0  0  0  0  0  0  0  0  0  0
  -12.8160  -25.5980   20.8010 O   0  0  0  0  0  0  0  0  0  0  0  0
  -13.9220  -26.1870   18.9140 N   0  0  0  0  0  0  0  0  0  0  0  0
  -13.5120  -27.5820   19.0410 C   0  0  1  0  0  0  0  0  0  0  0  0
  -14.5200  -28.2810   19.9540 C   0  0  0  0  0  0  0  0  0  0  0  0
  -15.7880  -28.1840   19.3240 O   0  0  0  0  0  0  0  0  0  0  0  0
  -16.8270  -28.8660   20.0160 C   0  0  1  0  0  0  0  0  0  0  0  0
  -17.0350  -28.2650   21.3050 O   0  0  0  0  0  0  0  0  0  0  0  0
  -17.3770  -26.8730   21.2640 C   0  0  2  0  0  0  0  0  0  0  0  0
  -17.5690  -26.4490   22.7330 C   0  0  0  0  0  0  0  0  0  0  0  0
  -18.0010  -25.0880   22.7990 O   0  0  0  0  0  0  0  0  0  0  0  0
  -18.6450  -26.6610   20.4270 C   0  0  2  0  0  0  0  0  0  0  0  0
  -19.7910  -27.3010   21.0290 O   0  0  0  0  0  0  0  0  0  0  0  0
  -20.7250  -26.4080   21.6470 C   0  0  0  0  0  0  0  0  0  0  0  0
  -21.9200  -26.1810   20.7240 C   0  0  0  0  0  0  0  0  0  0  0  0
  -22.1460  -24.6850   20.5360 C   0  0  0  0  0  0  0  0  0  0  0  0
  -18.4390  -27.2780   19.0440 C   0  0  2  0  0  0  0  0  0  0  0  0
  -19.6180  -27.1590   18.2920 O   0  0  0  0  0  0  0  0  0  0  0  0
  -18.0850  -28.7480   19.1810 C   0  0  1  0  0  0  0  0  0  0  0  0
  -17.8580  -29.3270   17.8710 O   0  0  0  0  0  0  0  0  0  0  0  0
  -13.4880  -28.2680   17.6790 C   0  0  2  0  0  0  0  0  0  0  0  0
  -13.0750  -29.6130   17.8850 O   0  0  0  0  0  0  0  0  0  0  0  0
  -12.5540  -27.5740   16.6790 C   0  0  2  0  0  0  0  0  0  0  0  0
  -12.6690  -28.2770   15.4230 O   0  0  0  0  0  0  0  0  0  0  0  0
  -11.1010  -27.5810   17.1660 C   0  0  0  0  0  0  0  0  0  0  0  0
  -10.1300  -27.1410   16.0520 C   0  0  0  0  0  0  0  0  0  0  0  0
  -10.3800  -25.6870   15.6220 C   0  0  0  0  0  0  0  0  0  0  0  0
   -9.1880  -25.1380   14.8050 C   0  0  0  0  0  0  0  0  0  0  0  0
   -9.0830  -25.8190   13.4300 C   0  0  0  0  0  0  0  0  0  0  0  0
   -7.9770  -25.1090   12.6190 C   0  0  0  0  0  0  0  0  0  0  0  0
   -7.9730  -25.5750   11.1610 C   0  0  0  0  0  0  0  0  0  0  0  0
   -7.0320  -26.7730   11.0280 C   0  0  0  0  0  0  0  0  0  0  0  0
   -6.9780  -27.2470    9.5760 C   0  0  0  0  0  0  0  0  0  0  0  0
   -6.3080  -28.6200    9.5810 C   0  0  0  0  0  0  0  0  0  0  0  0
   -6.0600  -29.0950    8.1610 C   0  0  0  0  0  0  0  0  0  0  0  0
   -5.0260  -30.2360    8.1480 C   0  0  0  0  0  0  0  0  0  0  0  0
   -5.7190  -31.5850    8.2340 C   0  0  0  0  0  0  0  0  0  0  0  0
   -4.7090  -32.7120    7.9780 C   0  0  0  0  0  0  0  0  0  0  0  0
 44 42  1  0
 32 44  1  0
 44 45  1  6
 42 37  1  0
 42 43  1  6
 34 37  1  0
 37 38  1  1
 33 34  1  0
 34 35  1  1
 32 31  1  6
 32 33  1  0
 62 63  1  0
 61 62  1  0
 60 61  1  0
 59 60  1  0
 58 59  1  0
 57 58  1  0
 56 57  1  0
 55 56  1  0
 54 55  1  0
 53 54  1  0
 52 53  1  0
 51 52  1  0
 50 51  1  0
 48 50  1  0
 48 49  1  6
 46 48  1  0
 46 47  1  1
 29 46  1  0
 29 30  1  1
 29 28  1  0
 30 31  1  0
 35 36  1  0
 38 39  1  0
 39 40  1  0
 40 41  1  0
 28 26  1  0
 26 27  2  0
 26 25  1  0
 25 24  1  0
 24 23  1  0
 23 22  1  0
 22 21  1  0
 21 20  1  0
 20 19  1  0
 19 18  1  0
 18 17  1  0
 17 16  1  0
 16 15  1  0
 15 14  1  0
 14 13  1  0
 13 12  1  0
 12 11  1  0
 11 10  1  0
 10  9  1  0
  9  8  1  0
  8  7  1  0
  7  6  1  0
  6  5  1  0
  5  4  1  0
  4  3  1  0
  3  2  1  0
  2  1  1  0
M  END
$$$$
