
     RDKit          3D

 69 70  0  0  0  0  0  0  0  0999 V2000
   84.7679  210.1071  325.0638 C   0  0  0  0  0  0  0  0  0  0  0  0
   84.5738  210.1894  323.5293 C   0  0  0  0  0  0  0  0  0  0  0  0
   84.4669  211.6632  323.1728 C   0  0  0  0  0  0  0  0  0  0  0  0
   84.3945  211.8016  321.6433 C   0  0  0  0  0  0  0  0  0  0  0  0
   84.2980  213.2570  321.1605 C   0  0  0  0  0  0  0  0  0  0  0  0
   84.2145  213.3918  319.6321 C   0  0  0  0  0  0  0  0  0  0  0  0
   84.1041  214.8241  319.1561 C   0  0  0  0  0  0  0  0  0  0  0  0
   83.9579  214.9104  317.6302 C   0  0  0  0  0  0  0  0  0  0  0  0
   84.3981  216.2243  317.0518 C   0  0  0  0  0  0  0  0  0  0  0  0
   83.5624  216.6274  315.8141 C   0  0  0  0  0  0  0  0  0  0  0  0
   84.4217  217.4061  314.8336 C   0  0  0  0  0  0  0  0  0  0  0  0
   83.5139  218.3818  314.0541 C   0  0  0  0  0  0  0  0  0  0  0  0
   84.2941  219.1567  313.0111 C   0  0  0  0  0  0  0  0  0  0  0  0
   85.7162  219.3000  313.5181 C   0  0  0  0  0  0  0  0  0  0  0  0
   86.4593  217.9978  313.4816 C   0  0  0  0  0  0  0  0  0  0  0  0
   86.1402  217.1734  314.7289 C   0  0  0  0  0  0  0  0  0  0  0  0
   87.3336  216.2266  315.1102 C   0  0  0  0  0  0  0  0  0  0  0  0
   87.1305  215.6295  316.4906 C   0  0  0  0  0  0  0  0  0  0  0  0
   88.4413  214.9983  316.9352 C   0  0  0  0  0  0  0  0  0  0  0  0
   88.2464  214.4116  318.3152 C   0  0  0  0  0  0  0  0  0  0  0  0
   88.8526  215.2717  319.4218 C   0  0  0  0  0  0  0  0  0  0  0  0
   90.0621  214.5320  320.0123 C   0  0  0  0  0  0  0  0  0  0  0  0
   91.2917  215.4626  320.1326 C   0  0  0  0  0  0  0  0  0  0  0  0
   91.9567  215.1308  321.4548 C   0  0  0  0  0  0  0  0  0  0  0  0
   91.6696  216.2545  322.4611 C   0  0  0  0  0  0  0  0  0  0  0  0
   92.6081  217.3977  322.2725 C   0  0  0  0  0  0  0  0  0  0  0  0
   93.8442  217.2186  322.3286 O   0  0  0  0  0  0  0  0  0  0  0  0
   92.0327  218.5751  321.8423 N   0  0  0  0  0  0  0  0  0  0  0  0
   92.6771  219.4283  320.8721 C   0  0  2  0  0  0  0  0  0  0  0  0
   93.6579  220.3358  321.6065 C   0  0  0  0  0  0  0  0  0  0  0  0
   94.9089  219.6206  321.7139 O   0  0  0  0  0  0  0  0  0  0  0  0
   95.9564  220.3988  322.3263 C   0  0  1  0  0  0  0  0  0  0  0  0
   95.8354  220.4149  323.7386 O   0  0  0  0  0  0  0  0  0  0  0  0
   95.8239  219.1333  324.3465 C   0  0  2  0  0  0  0  0  0  0  0  0
   95.7019  219.3744  325.8761 C   0  0  0  0  0  0  0  0  0  0  0  0
   95.7369  218.1203  326.5794 O   0  0  0  0  0  0  0  0  0  0  0  0
   97.1120  218.3904  324.0145 C   0  0  1  0  0  0  0  0  0  0  0  0
   97.1407  217.0312  324.4807 O   0  0  0  0  0  0  0  0  0  0  0  0
   96.0191  216.6035  325.2076 C   0  0  0  0  0  0  0  0  0  0  0  0
   95.6635  215.2674  324.9398 C   0  0  0  0  0  0  0  0  0  0  0  0
   94.4426  214.9988  324.3000 C   0  0  0  0  0  0  0  0  0  0  0  0
   93.7119  213.8570  324.6320 C   0  0  0  0  0  0  0  0  0  0  0  0
   94.2772  212.9010  325.5043 C   0  0  0  0  0  0  0  0  0  0  0  0
   93.4054  211.5273  326.0336 Cl  0  0  0  0  0  0  0  0  0  0  0  0
   95.5562  213.1323  326.0184 C   0  0  0  0  0  0  0  0  0  0  0  0
   96.0144  212.2342  327.4456 Cl  0  0  0  0  0  0  0  0  0  0  0  0
   96.3075  214.2816  325.6345 C   0  0  0  0  0  0  0  0  0  0  0  0
   97.2992  218.3508  322.4929 C   0  0  2  0  0  0  0  0  0  0  0  0
   98.5521  217.6826  322.1215 O   0  0  0  0  0  0  0  0  0  0  0  0
   97.3068  219.7773  321.9230 C   0  0  1  0  0  0  0  0  0  0  0  0
   97.4014  219.7380  320.4890 O   0  0  0  0  0  0  0  0  0  0  0  0
   91.6570  220.2730  320.1106 C   0  0  1  0  0  0  0  0  0  0  0  0
   92.1479  221.6442  320.1660 O   0  0  0  0  0  0  0  0  0  0  0  0
   91.4763  219.8367  318.6617 C   0  0  2  0  0  0  0  0  0  0  0  0
   91.9039  220.9417  317.7689 O   0  0  0  0  0  0  0  0  0  0  0  0
   89.9960  219.4741  318.3569 C   0  0  0  0  0  0  0  0  0  0  0  0
   89.8929  218.5093  317.1385 C   0  0  0  0  0  0  0  0  0  0  0  0
   90.3932  217.1192  317.4623 C   0  0  0  0  0  0  0  0  0  0  0  0
   89.3253  216.0867  317.3433 C   0  0  0  0  0  0  0  0  0  0  0  0
   88.0074  216.6853  316.8298 C   0  0  0  0  0  0  0  0  0  0  0  0
   86.8814  216.4480  317.8392 C   0  0  0  0  0  0  0  0  0  0  0  0
   86.9368  215.0091  318.3694 C   0  0  0  0  0  0  0  0  0  0  0  0
   85.4746  214.4522  318.3491 C   0  0  0  0  0  0  0  0  0  0  0  0
   85.5302  212.9170  318.6151 C   0  0  0  0  0  0  0  0  0  0  0  0
   85.5750  212.7206  320.1106 C   0  0  0  0  0  0  0  0  0  0  0  0
   85.5676  211.2483  320.4907 C   0  0  0  0  0  0  0  0  0  0  0  0
   85.6974  211.1630  322.0203 C   0  0  0  0  0  0  0  0  0  0  0  0
   86.2989  209.8784  322.4634 C   0  0  0  0  0  0  0  0  0  0  0  0
   86.1612  209.6649  323.9767 C   0  0  0  0  0  0  0  0  0  0  0  0
 48 37  1  0
 34 37  1  0
 37 38  1  1
 50 48  1  0
 48 49  1  1
 32 50  1  0
 50 51  1  6
 32 33  1  0
 33 34  1  0
 34 35  1  1
 35 36  1  0
 68 69  1  0
 67 68  1  0
 66 67  1  0
 65 66  1  0
 64 65  1  0
 63 64  1  0
 62 63  1  0
 61 62  1  0
 60 61  1  0
 59 60  1  0
 58 59  1  0
 57 58  1  0
 56 57  1  0
 54 56  1  0
 54 55  1  6
 52 54  1  0
 52 53  1  1
 29 52  1  0
 29 30  1  6
 29 28  1  0
 31 30  1  0
 32 31  1  6
 38 39  1  0
 39 40  1  0
 40 47  4  0
 40 41  4  0
 47 45  4  0
 45 46  1  0
 45 43  4  0
 43 44  1  0
 43 42  4  0
 42 41  4  0
 28 26  1  0
 26 27  2  0
 26 25  1  0
 25 24  1  0
 24 23  1  0
 23 22  1  0
 22 21  1  0
 21 20  1  0
 20 19  1  0
 19 18  1  0
 18 17  1  0
 17 16  1  0
 16 15  1  0
 15 14  1  0
 14 13  1  0
 13 12  1  0
 12 11  1  0
 11 10  1  0
 10  9  1  0
  9  8  1  0
  8  7  1  0
  7  6  1  0
  6  5  1  0
  5  4  1  0
  4  3  1  0
  3  2  1  0
  2  1  1  0
M  END
$$$$
