
     RDKit          3D

 33 37  0  0  0  0  0  0  0  0999 V2000
    7.0120  -60.8150    9.3110 N   0  0  0  0  0  0  0  0  0  0  0  0
    7.9870  -61.7640    8.7180 C   0  0  0  0  0  0  0  0  0  0  0  0
    7.7750  -61.9860    7.2250 C   0  0  0  0  0  0  0  0  0  0  0  0
    8.8060  -62.6500    6.5340 C   0  0  0  0  0  0  0  0  0  0  0  0
    8.6860  -62.7980    5.1410 C   0  0  0  0  0  0  0  0  0  0  0  0
    7.4910  -62.3040    4.5110 C   0  0  0  0  0  0  0  0  0  0  0  0
    7.4050  -62.4910    3.0760 C   0  0  0  0  0  0  0  0  0  0  0  0
    6.4660  -63.3490    2.6750 N   0  0  0  0  0  0  0  0  0  0  0  0
    6.3660  -63.7140    1.3730 C   0  0  0  0  0  0  0  0  0  0  0  0
    7.1840  -63.1350    0.3590 C   0  0  0  0  0  0  0  0  0  0  0  0
    6.9480  -63.4560   -1.0190 O   0  0  0  0  0  0  0  0  0  0  0  0
    7.9070  -63.0600   -2.0610 C   0  0  0  0  0  0  0  0  0  0  0  0
    7.2350  -62.0260   -2.9870 C   0  0  1  0  0  0  0  0  0  0  0  0
    8.2990  -61.1020   -3.6570 C   0  0  0  0  0  0  0  0  0  0  0  0
    7.6000  -60.0850   -4.5890 C   0  0  0  0  0  0  0  0  0  0  0  0
    6.6840  -60.8490   -5.5570 N   0  0  0  0  0  0  0  0  0  0  0  0
    5.6880  -61.8100   -4.9920 C   0  0  0  0  0  0  0  0  0  0  0  0
    6.3530  -62.8000   -3.9900 C   0  0  0  0  0  0  0  0  0  0  0  0
    8.1680  -62.2790    0.7760 N   0  0  0  0  0  0  0  0  0  0  0  0
    8.3430  -61.9840    2.1630 C   0  0  0  0  0  0  0  0  0  0  0  0
    9.4300  -61.0010    2.5800 C   0  0  0  0  0  0  0  0  0  0  0  0
    9.2980  -60.2220    3.7810 C   0  0  0  0  0  0  0  0  0  0  0  0
   10.3420  -59.2490    4.0590 C   0  0  0  0  0  0  0  0  0  0  0  0
   11.4800  -59.1120    3.1050 C   0  0  0  0  0  0  0  0  0  0  0  0
   12.5010  -58.0800    3.4340 C   0  0  0  0  0  0  0  0  0  0  0  0
   12.9790  -57.7920    4.7170 C   0  0  0  0  0  0  0  0  0  0  0  0
   13.8580  -56.7130    4.5410 C   0  0  0  0  0  0  0  0  0  0  0  0
   13.9660  -56.3420    3.1650 O   0  0  0  0  0  0  0  0  0  0  0  0
   13.0660  -57.1920    2.4660 C   0  0  0  0  0  0  0  0  0  0  0  0
   11.5760  -59.8380    1.9020 C   0  0  0  0  0  0  0  0  0  0  0  0
   10.5360  -60.7600    1.6550 C   0  0  0  0  0  0  0  0  0  0  0  0
    6.4100  -61.7220    5.1610 C   0  0  0  0  0  0  0  0  0  0  0  0
    6.5790  -61.5380    6.5760 C   0  0  0  0  0  0  0  0  0  0  0  0
  1  2  1  0
  2  3  1  0
  3  4  2  0
  3 33  1  0
  4  5  1  0
  5  6  2  0
  6 32  1  0
  6  7  1  0
 32 33  2  0
  7 20  1  0
  7  8  2  0
 20 21  1  0
 20 19  2  0
 21 22  2  0
 21 31  1  0
 22 23  1  0
 23 24  2  0
 24 25  1  0
 24 30  1  0
 25 29  2  0
 25 26  1  0
 29 28  1  0
 28 27  1  0
 27 26  2  0
 30 31  2  0
 19 10  1  0
 10  9  2  0
 10 11  1  0
  9  8  1  0
 11 12  1  0
 13 12  1  1
 13 14  1  0
 13 18  1  0
 14 15  1  0
 15 16  1  0
 16 17  1  0
 17 18  1  0
M  CHG  2   1   1  16   1
M  END
$$$$
