
     RDKit          3D

 24 27  0  0  0  0  0  0  0  0999 V2000
   77.4730    9.0840   -6.7530 C   0  0  0  0  0  0  0  0  0  0  0  0
   78.4440    8.7870   -7.8280 C   0  0  0  0  0  0  0  0  0  0  0  0
   79.4730    7.9530   -7.6070 N   0  0  0  0  0  0  0  0  0  0  0  0
   80.1740    7.8840   -8.8000 O   0  0  0  0  0  0  0  0  0  0  0  0
   79.5650    8.6760   -9.7220 C   0  0  0  0  0  0  0  0  0  0  0  0
   80.1840    8.7270  -11.0540 C   0  0  0  0  0  0  0  0  0  0  0  0
   78.4620    9.2700   -9.1530 C   0  0  0  0  0  0  0  0  0  0  0  0
   77.5740   10.1650   -9.8580 C   0  0  0  0  0  0  0  0  0  0  0  0
   78.0810   11.3180  -10.4430 C   0  0  0  0  0  0  0  0  0  0  0  0
   77.2190   12.1800  -11.1350 C   0  0  0  0  0  0  0  0  0  0  0  0
   77.7790   13.3820  -11.7250 C   0  0  0  0  0  0  0  0  0  0  0  0
   77.6410   14.7440  -11.3400 C   0  0  0  0  0  0  0  0  0  0  0  0
   76.8740   15.3020  -10.1980 C   0  0  0  0  0  0  0  0  0  0  0  0
   78.3310   15.5520  -12.1560 N   0  0  0  0  0  0  0  0  0  0  0  0
   78.9260   14.7190  -13.0950 O   0  0  0  0  0  0  0  0  0  0  0  0
   78.5960   13.4230  -12.8340 C   0  0  0  0  0  0  0  0  0  0  0  0
   79.1530   12.4060  -13.7480 C   0  0  0  0  0  0  0  0  0  0  0  0
   75.8350   11.8780  -11.2310 C   0  0  0  0  0  0  0  0  0  0  0  0
   74.9020   12.6980  -11.9150 C   0  0  0  0  0  0  0  0  0  0  0  0
   73.5610   12.3490  -11.9830 C   0  0  0  0  0  0  0  0  0  0  0  0
   73.1780   11.1810  -11.3620 C   0  0  0  0  0  0  0  0  0  0  0  0
   74.0270   10.3640  -10.6940 N   0  0  0  0  0  0  0  0  0  0  0  0
   75.3280   10.7040  -10.6350 C   0  0  0  0  0  0  0  0  0  0  0  0
   76.2040    9.8580   -9.9550 C   0  0  0  0  0  0  0  0  0  0  0  0
  9 10  2  0
  8  9  1  0
 24 23  1  0
 24  8  2  0
 23 18  2  0
 23 22  1  0
 18 10  1  0
 18 19  1  0
 10 11  1  0
  8  7  1  0
  7  5  2  0
  7  2  1  0
  5  4  1  0
  5  6  1  0
  4  3  1  0
  3  2  2  0
  2  1  1  0
 22 21  2  0
 21 20  1  0
 20 19  2  0
 11 16  2  0
 11 12  1  0
 16 15  1  0
 16 17  1  0
 15 14  1  0
 14 12  2  0
 12 13  1  0
M  END
$$$$
