
     RDKit          3D

 24 27  0  0  0  0  0  0  0  0999 V2000
   73.8917   11.6565  -10.4143 C   0  0  0  0  0  0  0  0  0  0  0  0
   74.7365   11.4026  -11.6219 C   0  0  0  0  0  0  0  0  0  0  0  0
   74.2182   11.6828  -12.8094 N   0  0  0  0  0  0  0  0  0  0  0  0
   75.3519   11.9672  -13.6538 O   0  0  0  0  0  0  0  0  0  0  0  0
   76.4730   11.7900  -12.8909 C   0  0  0  0  0  0  0  0  0  0  0  0
   77.7430   11.9153  -13.6072 C   0  0  0  0  0  0  0  0  0  0  0  0
   76.1283   11.1913  -11.6883 C   0  0  0  0  0  0  0  0  0  0  0  0
   76.8751   12.4363  -10.5434 C   0  0  0  0  0  0  0  0  0  0  0  0
   77.8216   11.5146   -9.9855 C   0  0  0  0  0  0  0  0  0  0  0  0
   77.5108   10.1433  -10.0484 C   0  0  0  0  0  0  0  0  0  0  0  0
   78.1154    9.2076   -9.1291 C   0  0  0  0  0  0  0  0  0  0  0  0
   77.9814    9.0842   -7.7634 C   0  0  0  0  0  0  0  0  0  0  0  0
   76.7283    9.1447   -6.9708 C   0  0  0  0  0  0  0  0  0  0  0  0
   79.1334    8.6171   -7.1793 N   0  0  0  0  0  0  0  0  0  0  0  0
   79.9135    8.2429   -8.2542 O   0  0  0  0  0  0  0  0  0  0  0  0
   79.2372    8.4329   -9.4151 C   0  0  0  0  0  0  0  0  0  0  0  0
   79.9876    8.1748  -10.6291 C   0  0  0  0  0  0  0  0  0  0  0  0
   76.1941    9.8521  -10.5895 C   0  0  0  0  0  0  0  0  0  0  0  0
   76.4860    9.9344  -12.3369 C   0  0  0  0  0  0  0  0  0  0  0  0
   77.3312   11.1193  -12.3082 C   0  0  0  0  0  0  0  0  0  0  0  0
   76.7666   12.3035  -11.7282 C   0  0  0  0  0  0  0  0  0  0  0  0
   75.5791   12.1860  -11.0940 N   0  0  0  0  0  0  0  0  0  0  0  0
   75.2393   10.9812  -10.5720 C   0  0  0  0  0  0  0  0  0  0  0  0
   75.4918   11.8265   -9.4097 C   0  0  0  0  0  0  0  0  0  0  0  0
  9 10  4  0
  8  9  4  0
 24 23  4  0
 24  8  4  0
 23 18  4  0
 23 22  4  0
 18 10  4  0
 18 19  4  0
 10 11  1  0
  8  7  1  0
  7  5  4  0
  7  2  4  0
  5  4  4  0
  5  6  1  0
  4  3  4  0
  3  2  4  0
  2  1  1  0
 22 21  4  0
 21 20  4  0
 20 19  4  0
 11 16  4  0
 11 12  4  0
 16 15  4  0
 16 17  1  0
 15 14  4  0
 14 12  4  0
 12 13  1  0
M  END
$$$$
