
     RDKit          3D

 26 29  0  0  0  0  0  0  0  0999 V2000
   93.6798    8.7870   40.9540 C   0  0  0  0  0  0  0  0  0  0  0  0
   92.5223    8.8195   41.8246 C   0  0  0  0  0  0  0  0  0  0  0  0
   91.3164    8.2755   41.5329 N   0  0  0  0  0  0  0  0  0  0  0  0
   90.6009    8.2532   42.7073 O   0  0  0  0  0  0  0  0  0  0  0  0
   91.3259    8.8414   43.7025 C   0  0  0  0  0  0  0  0  0  0  0  0
   90.8127    8.6763   45.0929 C   0  0  0  0  0  0  0  0  0  0  0  0
   92.4848    9.3060   43.1700 C   0  0  0  0  0  0  0  0  0  0  0  0
   93.4568   10.1882   43.8452 C   0  0  0  0  0  0  0  0  0  0  0  0
   92.9447   11.2886   44.5407 C   0  0  0  0  0  0  0  0  0  0  0  0
   93.8767   12.1229   45.2581 C   0  0  0  0  0  0  0  0  0  0  0  0
   93.2578   12.8667   46.7660 S   0  0  1  0  0  0  0  0  0  0  0  0
   92.2683   11.9470   47.2803 O   0  0  0  0  0  0  0  0  0  0  0  0
   94.3555   13.1574   47.5742 O   0  0  0  0  0  0  0  0  0  0  0  0
   92.4065   14.2664   46.3129 N   0  0  0  0  0  0  0  0  0  0  0  0
   93.1120   15.3535   45.6003 C   0  0  1  0  0  0  0  0  0  0  0  0
   94.4432   14.8473   45.0650 C   0  0  0  0  0  0  0  0  0  0  0  0
   94.5213   15.3922   43.6663 C   0  0  0  0  0  0  0  0  0  0  0  0
   93.3396   16.3419   43.3945 C   0  0  0  0  0  0  0  0  0  0  0  0
   92.2824   15.6895   44.2978 C   0  0  0  0  0  0  0  0  0  0  0  0
   95.2518   12.0502   44.9312 C   0  0  0  0  0  0  0  0  0  0  0  0
   96.2631   12.8973   45.4798 C   0  0  0  0  0  0  0  0  0  0  0  0
   97.6255   12.5079   45.4980 C   0  0  0  0  0  0  0  0  0  0  0  0
   97.9265   11.2436   44.9588 C   0  0  0  0  0  0  0  0  0  0  0  0
   97.0102   10.4451   44.4109 N   0  0  0  0  0  0  0  0  0  0  0  0
   95.7400   10.8593   44.2873 C   0  0  0  0  0  0  0  0  0  0  0  0
   94.8266    9.9980   43.7083 C   0  0  0  0  0  0  0  0  0  0  0  0
 25 26  4  0
 25 20  4  0
 25 24  4  0
 26  8  4  0
  8  9  4  0
  8  7  1  0
  9 10  4  0
 10 20  4  0
 10 11  1  0
 20 21  4  0
  7  5  4  0
  7  2  4  0
 11 14  1  1
 11 12  2  0
 11 13  2  0
 15 14  1  6
  5  4  4  0
  5  6  1  0
  4  3  4  0
  3  2  4  0
  2  1  1  0
 15 16  1  0
 15 19  1  0
 16 17  1  0
 17 18  1  0
 18 19  1  0
 24 23  4  0
 23 22  4  0
 22 21  4  0
M  END
$$$$
