
     RDKit          3D

 30 35  0  0  0  0  0  0  0  0999 V2000
    7.0192   61.3385   -8.1877 C   0  0  0  0  0  0  0  0  0  0  0  0
    6.5023   60.1012   -7.4039 C   0  0  0  0  0  0  0  0  0  0  0  0
    6.3191   58.9032   -8.0957 C   0  0  0  0  0  0  0  0  0  0  0  0
    5.2637   58.0526   -7.7094 C   0  0  0  0  0  0  0  0  0  0  0  0
    4.4464   58.2678   -6.6436 C   0  0  0  0  0  0  0  0  0  0  0  0
    3.3592   57.5477   -6.4839 N   0  0  0  0  0  0  0  0  0  0  0  0
    2.1977   58.1120   -6.0889 C   0  0  0  0  0  0  0  0  0  0  0  0
    2.1545   59.4433   -5.6274 C   0  0  0  0  0  0  0  0  0  0  0  0
    3.3609   60.1412   -5.5706 C   0  0  0  0  0  0  0  0  0  0  0  0
    4.6015   59.5351   -5.9829 C   0  0  0  0  0  0  0  0  0  0  0  0
    5.7682   60.2806   -6.1499 C   0  0  0  0  0  0  0  0  0  0  0  0
    6.5608   60.6352   -4.9589 C   0  0  0  0  0  0  0  0  0  0  0  0
    7.3009   61.8212   -4.8923 C   0  0  0  0  0  0  0  0  0  0  0  0
    8.6080   61.8423   -4.3923 C   0  0  0  0  0  0  0  0  0  0  0  0
    9.5038   62.8394   -4.9513 C   0  0  0  0  0  0  0  0  0  0  0  0
   10.0551   64.0086   -4.3095 C   0  0  0  0  0  0  0  0  0  0  0  0
   10.1136   64.2346   -2.8254 C   0  0  0  0  0  0  0  0  0  0  0  0
   10.2595   64.9661   -5.1723 N   0  0  0  0  0  0  0  0  0  0  0  0
   10.0567   64.4246   -6.4253 O   0  0  0  0  0  0  0  0  0  0  0  0
    9.7294   63.1230   -6.2817 C   0  0  0  0  0  0  0  0  0  0  0  0
    9.7690   62.2388   -7.4631 C   0  0  0  0  0  0  0  0  0  0  0  0
    9.0877   60.7730   -3.6667 C   0  0  0  0  0  0  0  0  0  0  0  0
    8.2960   59.6066   -3.5518 C   0  0  0  0  0  0  0  0  0  0  0  0
    8.5870   58.4183   -2.9692 N   0  0  0  0  0  0  0  0  0  0  0  0
    7.4730   57.6669   -3.1527 C   0  0  0  0  0  0  0  0  0  0  0  0
    7.3426   56.3246   -2.5983 C   0  0  2  0  0  0  0  0  0  0  0  0
    7.0445   56.1789   -1.1490 C   0  0  0  0  0  0  0  0  0  0  0  0
    8.3510   55.7125   -1.6332 C   0  0  0  0  0  0  0  0  0  0  0  0
    6.5178   58.3471   -3.8379 N   0  0  0  0  0  0  0  0  0  0  0  0
    6.9944   59.5894   -4.0837 C   0  0  0  0  0  0  0  0  0  0  0  0
 14 22  4  0
 14 13  4  0
 14 15  1  0
 22 23  4  0
 23 30  4  0
 23 24  4  0
 30 12  4  0
 30 29  4  0
 12 13  4  0
 12 11  1  0
 11 10  4  0
 11  2  4  0
 15 16  4  0
 15 20  4  0
 16 18  4  0
 16 17  1  0
 18 19  4  0
 19 20  4  0
 20 21  1  0
 24 25  4  0
 25 29  4  0
 26 25  1  1
 26 27  1  0
 26 28  1  0
 27 28  1  0
 10  5  4  0
 10  9  4  0
  5  4  4  0
  5  6  4  0
  4  3  4  0
  3  2  4  0
  2  1  1  0
  9  8  4  0
  8  7  4  0
  7  6  4  0
M  END
$$$$
