
     RDKit          3D

 12 11  0  0  0  0  0  0  0  0999 V2000
  -28.8170   54.7940   74.3070 C   0  0  0  0  0  0  0  0  0  0  0  0
  -28.6640   55.7640   75.4760 C   0  0  2  0  0  0  0  0  0  0  0  0
  -27.2150   55.6980   75.9700 C   0  0  0  0  0  0  0  0  0  0  0  0
  -29.6150   55.4750   76.6350 C   0  0  0  0  0  0  0  0  0  0  0  0
  -29.8000   54.0040   76.9600 C   0  0  2  0  0  0  0  0  0  0  0  0
  -30.7400   53.3510   76.0170 N   0  0  0  0  0  0  0  0  0  0  0  0
  -30.3600   53.9190   78.3440 C   0  0  0  0  0  0  0  0  0  0  0  0
  -31.0680   52.9830   78.6820 O   0  0  0  0  0  0  0  0  0  0  0  0
  -30.1020   54.8800   79.2250 O   0  0  0  0  0  0  0  0  0  0  0  0
  -29.0640   57.1780   75.0320 C   0  0  1  0  0  0  0  0  0  0  0  0
  -28.5270   58.0080   75.9750 F   0  0  0  0  0  0  0  0  0  0  0  0
  -28.6680   57.5170   73.7580 F   0  0  0  0  0  0  0  0  0  0  0  0
  8  7  2  0
  7  9  1  0
  7  5  1  0
  5  6  1  6
  5  4  1  0
  4  2  1  0
  2  1  1  6
  2  3  1  0
  2 10  1  0
 10 11  1  1
 10 12  1  0
M  CHG  1   6   1
M  END
$$$$
