
     RDKit          3D

 12 11  0  0  0  0  0  0  0  0999 V2000
  -20.4008   67.5646   70.7580 C   0  0  0  0  0  0  0  0  0  0  0  0
  -20.6905   68.2878   69.4218 C   0  0  2  0  0  0  0  0  0  0  0  0
  -20.4060   67.3241   68.2902 C   0  0  0  0  0  0  0  0  0  0  0  0
  -19.8551   69.6262   69.2093 C   0  0  0  0  0  0  0  0  0  0  0  0
  -18.3632   69.4053   69.0786 C   0  0  1  0  0  0  0  0  0  0  0  0
  -17.7756   70.5234   68.3497 N   0  0  0  0  0  0  0  0  0  0  0  0
  -17.8135   69.3543   70.4641 C   0  0  0  0  0  0  0  0  0  0  0  0
  -17.7112   68.2642   71.0783 O   0  0  0  0  0  0  0  0  0  0  0  0
  -17.1692   70.4147   70.9610 O   0  0  0  0  0  0  0  0  0  0  0  0
  -22.1352   68.7715   69.3416 C   0  0  2  0  0  0  0  0  0  0  0  0
  -22.4944   69.0165   70.6699 F   0  0  0  0  0  0  0  0  0  0  0  0
  -22.9896   67.8770   68.7603 F   0  0  0  0  0  0  0  0  0  0  0  0
  8  7  2  0
  7  9  1  0
  7  5  1  0
  5  6  1  1
  5  4  1  0
  4  2  1  0
  2  1  1  1
  2  3  1  0
  2 10  1  0
 10 11  1  6
 10 12  1  0
M  CHG  1   6   1
M  END
$$$$
