
     RDKit          3D

 29 31  0  0  0  0  0  0  0  0999 V2000
   89.6510  134.1065  121.3104 C   0  0  0  0  0  0  0  0  0  0  0  0
   89.7946  132.7099  121.6174 O   0  0  0  0  0  0  0  0  0  0  0  0
   89.0714  131.9429  120.7401 C   0  0  0  0  0  0  0  0  0  0  0  0
   88.3176  131.0150  121.0539 O   0  0  0  0  0  0  0  0  0  0  0  0
   89.5937  131.9047  119.2453 C   0  0  2  0  0  0  0  0  0  0  0  0
   89.1969  133.1090  118.5265 N   0  0  0  0  0  0  0  0  0  0  0  0
   90.1018  134.0209  118.2277 C   0  0  0  0  0  0  0  0  0  0  0  0
   89.7663  135.2146  118.1429 O   0  0  0  0  0  0  0  0  0  0  0  0
   91.3640  133.6099  118.4466 C   0  0  0  0  0  0  0  0  0  0  0  0
   91.6147  132.8443  119.5411 N   0  0  0  0  0  0  0  0  0  0  0  0
   92.4406  131.8898  119.0259 N   0  0  0  0  0  0  0  0  0  0  0  0
   92.0798  130.4458  118.9517 C   0  0  0  0  0  0  0  0  0  0  0  0
   91.6021  129.9962  120.1483 C   0  0  0  0  0  0  0  0  0  0  0  0
   91.4697  130.7627  121.2905 C   0  0  0  0  0  0  0  0  0  0  0  0
   91.6154  130.2064  122.5639 C   0  0  0  0  0  0  0  0  0  0  0  0
   91.8270  128.8572  122.6809 C   0  0  0  0  0  0  0  0  0  0  0  0
   92.8948  128.6764  123.2104 F   0  0  0  0  0  0  0  0  0  0  0  0
   91.7297  128.0470  121.5603 C   0  0  0  0  0  0  0  0  0  0  0  0
   91.6096  128.6592  120.3528 C   0  0  0  0  0  0  0  0  0  0  0  0
   93.1602  132.4677  118.1234 C   0  0  0  0  0  0  0  0  0  0  0  0
   94.1445  131.9203  117.4250 C   0  0  0  0  0  0  0  0  0  0  0  0
   94.1288  132.0268  116.0533 C   0  0  0  0  0  0  0  0  0  0  0  0
   93.2161  132.8661  115.4548 C   0  0  0  0  0  0  0  0  0  0  0  0
   92.4062  133.6203  116.2750 C   0  0  0  0  0  0  0  0  0  0  0  0
   92.3508  133.3821  117.5840 C   0  0  0  0  0  0  0  0  0  0  0  0
   89.2101  130.6573  118.4313 C   0  0  1  0  0  0  0  0  0  0  0  0
   88.4841  131.1146  117.1611 C   0  0  0  0  0  0  0  0  0  0  0  0
   90.4980  129.9433  118.0495 C   0  0  0  0  0  0  0  0  0  0  0  0
   88.3374  129.5944  119.1484 C   0  0  0  0  0  0  0  0  0  0  0  0
  5  6  1  1
  7  6  1  0
  5  3  1  0
  5 26  1  0
  3  4  2  0
  3  2  1  0
 26 27  1  6
 26 28  1  0
 26 29  1  0
  9  7  1  0
  7  8  2  0
  2  1  1  0
 25  9  4  0
  9 10  4  0
 12 13  1  0
 11 12  1  0
 13 14  4  0
 13 19  4  0
 14 15  4  0
 15 16  4  0
 18 16  4  0
 16 17  1  0
 19 18  4  0
 20 25  4  0
 20 21  4  0
 20 11  4  0
 25 24  4  0
 24 23  4  0
 23 22  4  0
 22 21  4  0
 10 11  4  0
M  END
$$$$
