
     RDKit          3D

 27 29  0  0  0  0  0  0  0  0999 V2000
   14.7214   29.3794  -13.1698 C   0  0  0  0  0  0  0  0  0  0  0  0
   14.4995   29.8745  -14.5922 C   0  0  2  0  0  0  0  0  0  0  0  0
   14.8223   28.7586  -15.5694 C   0  0  0  0  0  0  0  0  0  0  0  0
   15.3719   30.9514  -14.8033 O   0  0  0  0  0  0  0  0  0  0  0  0
   13.0311   30.4197  -14.8108 C   0  0  2  0  0  0  0  0  0  0  0  0
   12.1429   30.1665  -13.5606 C   0  0  0  0  0  0  0  0  0  0  0  0
   11.8728   28.7178  -13.3128 C   0  0  0  0  0  0  0  0  0  0  0  0
   11.2715   28.0285  -14.5346 C   0  0  1  0  0  0  0  0  0  0  0  0
    9.8898   28.5099  -14.7378 N   0  0  0  0  0  0  0  0  0  0  0  0
    8.9224   28.2739  -13.7886 C   0  0  0  0  0  0  0  0  0  0  0  0
    8.7150   29.0460  -12.7678 O   0  0  0  0  0  0  0  0  0  0  0  0
    8.3510   26.8827  -13.6902 C   0  0  0  0  0  0  0  0  0  0  0  0
    7.9354   26.4106  -12.4211 C   0  0  0  0  0  0  0  0  0  0  0  0
    6.9566   25.4867  -12.2644 N   0  0  0  0  0  0  0  0  0  0  0  0
    6.4044   24.9081  -13.3488 C   0  0  0  0  0  0  0  0  0  0  0  0
    5.3196   24.1346  -13.2006 C   0  0  0  0  0  0  0  0  0  0  0  0
    4.5126   23.7436  -14.2904 C   0  0  0  0  0  0  0  0  0  0  0  0
    3.6382   22.6771  -14.1445 O   0  0  0  0  0  0  0  0  0  0  0  0
    3.5073   22.4857  -12.6947 C   0  0  2  0  0  0  0  0  0  0  0  0
    3.4373   21.1682  -12.5028 F   0  0  0  0  0  0  0  0  0  0  0  0
    2.4448   23.1645  -12.2111 F   0  0  0  0  0  0  0  0  0  0  0  0
    4.7572   24.2416  -15.5544 C   0  0  0  0  0  0  0  0  0  0  0  0
    5.9535   24.9243  -15.7748 C   0  0  0  0  0  0  0  0  0  0  0  0
    6.7948   25.2742  -14.6781 C   0  0  0  0  0  0  0  0  0  0  0  0
    7.8950   26.1221  -14.7705 C   0  0  0  0  0  0  0  0  0  0  0  0
   12.1060   28.2797  -15.8111 C   0  0  0  0  0  0  0  0  0  0  0  0
   12.3295   29.8084  -16.0189 C   0  0  0  0  0  0  0  0  0  0  0  0
  2  1  1  6
  2  3  1  0
  5  6  1  1
  5  2  1  0
 27  5  1  0
 26 27  1  0
  8 26  1  0
  7  6  1  0
  8  7  1  0
 10 12  1  0
  9 10  1  0
 10 11  2  0
 12 13  4  0
 12 25  4  0
 13 14  4  0
 15 16  4  0
 24 15  4  0
 14 15  4  0
 16 17  4  0
 22 17  4  0
 17 18  1  0
 18 19  1  0
 19 20  1  1
 19 21  1  0
 23 22  4  0
 24 23  4  0
 25 24  4  0
  2  4  1  0
  8  9  1  6
M  END
$$$$
