
     RDKit          3D

 19 20  0  0  0  0  0  0  0  0999 V2000
  106.4120  -53.5860   44.9170 N   0  0  0  0  0  0  0  0  0  0  0  0
  107.4170  -53.1140   44.6690 N   0  0  0  0  0  0  0  0  0  0  0  0
  108.4410  -52.6670   44.4790 N   0  0  0  0  0  0  0  0  0  0  0  0
  108.7460  -51.6900   43.4270 C   0  0  2  0  0  0  0  0  0  0  0  0
  110.1580  -51.0860   43.3400 C   0  0  2  0  0  0  0  0  0  0  0  0
  110.9280  -51.3830   44.5100 O   0  0  0  0  0  0  0  0  0  0  0  0
  109.7980  -49.5920   43.3180 C   0  0  1  0  0  0  0  0  0  0  0  0
  110.8700  -48.8300   42.5160 C   0  0  0  0  0  0  0  0  0  0  0  0
  111.0960  -47.5430   43.1160 O   0  0  0  0  0  0  0  0  0  0  0  0
  108.4540  -49.4570   42.7700 O   0  0  0  0  0  0  0  0  0  0  0  0
  107.7510  -50.7370   42.7140 C   0  0  1  0  0  0  0  0  0  0  0  0
  107.4810  -51.0860   41.3010 N   0  0  0  0  0  0  0  0  0  0  0  0
  108.1890  -50.5030   40.2700 C   0  0  0  0  0  0  0  0  0  0  0  0
  107.9250  -50.8180   38.9740 C   0  0  0  0  0  0  0  0  0  0  0  0
  106.8920  -51.7570   38.7060 C   0  0  0  0  0  0  0  0  0  0  0  0
  106.6460  -52.0510   37.5440 O   0  0  0  0  0  0  0  0  0  0  0  0
  106.2020  -52.3110   39.7360 N   0  0  0  0  0  0  0  0  0  0  0  0
  106.5080  -51.9680   41.0130 C   0  0  0  0  0  0  0  0  0  0  0  0
  105.9050  -52.4540   41.9470 O   0  0  0  0  0  0  0  0  0  0  0  0
 12 18  1  0
 12 13  1  0
 11 12  1  6
 18 19  2  0
 18 17  1  0
 17 15  1  0
 15 16  2  0
 15 14  1  0
 14 13  2  0
 11  4  1  0
 11 10  1  0
  4  5  1  0
  4  3  1  1
  5  6  1  1
  5  7  1  0
  3  2  2  3
  7 10  1  0
  7  8  1  6
  2  1  2  0
  8  9  1  0
M  CHG  2   1  -1   2   1
M  END
$$$$
