
     RDKit          3D

 55 57  0  0  0  0  0  0  0  0999 V2000
   32.7629   14.3252   18.0346 C   0  0  0  0  0  0  0  0  0  0  0  0
   32.3249   14.6191   16.6451 C   0  0  0  0  0  0  0  0  0  0  0  0
   31.1694   15.4972   16.3602 C   0  0  0  0  0  0  0  0  0  0  0  0
   31.0675   16.2012   15.3632 O   0  0  0  0  0  0  0  0  0  0  0  0
   29.8166   15.3218   17.3598 S   0  0  0  0  0  0  0  0  0  0  0  0
   29.2100   16.9121   17.5823 C   0  0  0  0  0  0  0  0  0  0  0  0
   27.7047   16.7725   17.8091 C   0  0  0  0  0  0  0  0  0  0  0  0
   27.0846   18.0061   18.1723 N   0  0  0  0  0  0  0  0  0  0  0  0
   25.7155   18.1814   18.1430 C   0  0  0  0  0  0  0  0  0  0  0  0
   25.0748   18.2694   17.1171 O   0  0  0  0  0  0  0  0  0  0  0  0
   25.1096   18.7409   19.4144 C   0  0  0  0  0  0  0  0  0  0  0  0
   23.7434   19.3502   19.0235 C   0  0  0  0  0  0  0  0  0  0  0  0
   23.1871   20.0418   20.1917 N   0  0  0  0  0  0  0  0  0  0  0  0
   21.8648   20.2916   20.1853 C   0  0  0  0  0  0  0  0  0  0  0  0
   21.1795   20.3736   19.1676 O   0  0  0  0  0  0  0  0  0  0  0  0
   21.2528   20.2266   21.5033 C   0  0  1  0  0  0  0  0  0  0  0  0
   22.1297   19.4757   22.3572 O   0  0  0  0  0  0  0  0  0  0  0  0
   21.0059   21.6279   22.1030 C   0  0  2  0  0  0  0  0  0  0  0  0
   21.7430   22.7672   21.4538 C   0  0  0  0  0  0  0  0  0  0  0  0
   21.3933   21.6799   23.6082 C   0  0  0  0  0  0  0  0  0  0  0  0
   19.5083   21.8985   21.9522 C   0  0  0  0  0  0  0  0  0  0  0  0
   18.8146   21.3083   23.0554 O   0  0  0  0  0  0  0  0  0  0  0  0
   18.5452   22.2316   24.3544 P   0  0  2  0  0  0  0  0  0  0  0  0
   18.8420   21.2896   25.4855 O   0  0  0  0  0  0  0  0  0  0  0  0
   17.1360   22.6252   24.3315 O   0  0  0  0  0  0  0  0  0  0  0  0
   19.3023   23.6219   24.2815 O   0  0  0  0  0  0  0  0  0  0  0  0
   18.5441   25.0178   24.0036 P   0  0  2  0  0  0  0  0  0  0  0  0
   18.7724   25.9939   25.0649 O   0  0  0  0  0  0  0  0  0  0  0  0
   17.0726   24.6430   23.9169 O   0  0  0  0  0  0  0  0  0  0  0  0
   18.9681   25.5032   22.5546 O   0  0  0  0  0  0  0  0  0  0  0  0
   19.6369   24.6684   21.5525 C   0  0  0  0  0  0  0  0  0  0  0  0
   20.3699   25.6580   20.7035 C   0  0  1  0  0  0  0  0  0  0  0  0
   21.7272   25.1618   20.5556 O   0  0  0  0  0  0  0  0  0  0  0  0
   21.9189   24.8252   19.1514 C   0  0  1  0  0  0  0  0  0  0  0  0
   22.7161   23.5816   19.0275 N   0  0  0  0  0  0  0  0  0  0  0  0
   22.5660   22.4022   19.5945 C   0  0  0  0  0  0  0  0  0  0  0  0
   23.5543   21.5070   19.2233 N   0  0  0  0  0  0  0  0  0  0  0  0
   24.3667   22.2195   18.3880 C   0  0  0  0  0  0  0  0  0  0  0  0
   25.6426   21.9298   17.8444 C   0  0  0  0  0  0  0  0  0  0  0  0
   26.0723   20.6676   17.8144 N   0  0  0  0  0  0  0  0  0  0  0  0
   26.4013   22.9968   17.4597 N   0  0  0  0  0  0  0  0  0  0  0  0
   25.9196   24.2600   17.5173 C   0  0  0  0  0  0  0  0  0  0  0  0
   24.6640   24.6092   17.8886 N   0  0  0  0  0  0  0  0  0  0  0  0
   23.8837   23.6487   18.3581 C   0  0  0  0  0  0  0  0  0  0  0  0
   20.5923   24.6661   18.4785 C   0  0  2  0  0  0  0  0  0  0  0  0
   20.6363   24.9183   17.0964 O   0  0  0  0  0  0  0  0  0  0  0  0
   19.7873   25.7015   19.2760 C   0  0  2  0  0  0  0  0  0  0  0  0
   20.0159   26.9978   18.6177 O   0  0  0  0  0  0  0  0  0  0  0  0
   19.1226   27.4225   17.3521 P   0  0  2  0  0  0  0  0  0  0  0  0
   20.0271   27.0778   16.2087 O   0  0  0  0  0  0  0  0  0  0  0  0
   18.9014   28.9186   17.5384 O   0  0  0  0  0  0  0  0  0  0  0  0
   17.8789   26.5624   17.3540 O   0  0  0  0  0  0  0  0  0  0  0  0
   33.0550   14.1179   15.6465 N   0  0  0  0  0  0  0  0  0  0  0  0
   33.5401   14.9244   14.8356 O   0  0  0  0  0  0  0  0  0  0  0  0
   33.6659   13.0766   15.8371 O   0  0  0  0  0  0  0  0  0  0  0  0
 41 42  4  0
 41 39  4  0
 42 43  4  0
 43 44  4  0
 44 38  4  0
 44 35  4  0
 38 39  4  0
 38 37  4  0
 39 40  1  0
 37 36  4  0
 36 35  4  0
 34 35  1  1
 34 45  1  0
 34 33  1  0
 45 46  1  6
 45 47  1  0
 47 48  1  6
 47 32  1  0
 48 49  1  0
 32 33  1  0
 32 31  1  1
 31 30  1  0
 30 27  1  0
 49 50  2  0
 49 51  1  6
 49 52  1  0
 27 29  1  1
 27 28  2  0
 27 26  1  0
 26 23  1  0
 23 25  1  6
 23 24  2  0
 23 22  1  0
 22 21  1  0
 21 18  1  0
 18 19  1  1
 18 20  1  0
 18 16  1  0
 16 17  1  6
 16 14  1  0
 14 15  2  0
 14 13  1  0
 13 12  1  0
 12 11  1  0
 11  9  1  0
  9 10  2  0
  9  8  1  0
  8  7  1  0
  7  6  1  0
  6  5  1  0
  5  3  1  0
  3  4  2  0
  3  2  1  0
  2  1  1  0
  2 53  1  0
 53 55  1  0
 53 54  2  0
M  CHG  2  53   1  55  -1
M  END
$$$$
