
     RDKit          3D

 55 57  0  0  0  0  0  0  0  0999 V2000
   33.1252   13.8020   17.3886 C   0  0  0  0  0  0  0  0  0  0  0  0
   32.7760   14.4427   16.0474 C   0  0  1  0  0  0  0  0  0  0  0  0
   31.5928   15.2652   15.9998 C   0  0  0  0  0  0  0  0  0  0  0  0
   31.5159   16.1215   15.0414 O   0  0  0  0  0  0  0  0  0  0  0  0
   30.3705   14.7847   16.6275 N   0  0  0  0  0  0  0  0  0  0  0  0
   29.7697   15.4389   17.7594 C   0  0  0  0  0  0  0  0  0  0  0  0
   28.9142   16.4848   17.1019 C   0  0  0  0  0  0  0  0  0  0  0  0
   27.8760   17.0243   17.9862 N   0  0  0  0  0  0  0  0  0  0  0  0
   26.6551   17.2745   17.5814 C   0  0  0  0  0  0  0  0  0  0  0  0
   26.3391   17.2322   16.4149 O   0  0  0  0  0  0  0  0  0  0  0  0
   25.5243   17.2823   18.5914 C   0  0  0  0  0  0  0  0  0  0  0  0
   24.8701   18.6380   18.6124 C   0  0  0  0  0  0  0  0  0  0  0  0
   23.5137   18.5028   19.1836 N   0  0  0  0  0  0  0  0  0  0  0  0
   22.6302   19.5120   19.0142 C   0  0  0  0  0  0  0  0  0  0  0  0
   22.6327   20.1931   17.9454 O   0  0  0  0  0  0  0  0  0  0  0  0
   21.5171   19.5585   19.9094 C   0  0  2  0  0  0  0  0  0  0  0  0
   20.4593   20.2084   19.2664 O   0  0  0  0  0  0  0  0  0  0  0  0
   21.8605   20.2529   21.2247 C   0  0  2  0  0  0  0  0  0  0  0  0
   23.1911   20.9489   21.1080 C   0  0  0  0  0  0  0  0  0  0  0  0
   21.8872   19.2914   22.4129 C   0  0  0  0  0  0  0  0  0  0  0  0
   20.8162   21.2699   21.6094 C   0  0  0  0  0  0  0  0  0  0  0  0
   19.8255   20.5863   22.2990 O   0  0  0  0  0  0  0  0  0  0  0  0
   19.2500   21.2209   23.6252 P   0  0  1  0  0  0  0  0  0  0  0  0
   18.1055   20.3040   24.0517 O   0  0  0  0  0  0  0  0  0  0  0  0
   20.3515   21.2729   24.6152 O   0  0  0  0  0  0  0  0  0  0  0  0
   18.7825   22.7573   23.6929 O   0  0  0  0  0  0  0  0  0  0  0  0
   19.2797   24.0329   24.5847 P   0  0  1  0  0  0  0  0  0  0  0  0
   18.2568   25.1156   24.4786 O   0  0  0  0  0  0  0  0  0  0  0  0
   19.5106   23.4035   25.9511 O   0  0  0  0  0  0  0  0  0  0  0  0
   20.4991   24.8216   23.9641 O   0  0  0  0  0  0  0  0  0  0  0  0
   20.5498   25.7164   22.8267 C   0  0  0  0  0  0  0  0  0  0  0  0
   20.7100   24.7707   21.6076 C   0  0  2  0  0  0  0  0  0  0  0  0
   22.1053   24.8806   21.1028 O   0  0  0  0  0  0  0  0  0  0  0  0
   21.8652   24.8782   19.6238 C   0  0  1  0  0  0  0  0  0  0  0  0
   22.5775   23.6859   19.0314 N   0  0  0  0  0  0  0  0  0  0  0  0
   22.1771   22.3710   19.0606 C   0  0  0  0  0  0  0  0  0  0  0  0
   23.1844   21.6098   18.6041 N   0  0  0  0  0  0  0  0  0  0  0  0
   24.2398   22.4334   18.3576 C   0  0  0  0  0  0  0  0  0  0  0  0
   25.6217   22.2502   18.0534 C   0  0  0  0  0  0  0  0  0  0  0  0
   26.1151   20.9990   17.9864 N   0  0  0  0  0  0  0  0  0  0  0  0
   26.4019   23.3583   17.9319 N   0  0  0  0  0  0  0  0  0  0  0  0
   25.8659   24.6425   18.1028 C   0  0  0  0  0  0  0  0  0  0  0  0
   24.5905   24.8841   18.3804 N   0  0  0  0  0  0  0  0  0  0  0  0
   23.7894   23.8227   18.5616 C   0  0  0  0  0  0  0  0  0  0  0  0
   20.3850   24.9104   19.1713 C   0  0  2  0  0  0  0  0  0  0  0  0
   20.1466   25.7197   18.0352 O   0  0  0  0  0  0  0  0  0  0  0  0
   19.7577   25.2177   20.5032 C   0  0  2  0  0  0  0  0  0  0  0  0
   19.4450   26.6086   20.5493 O   0  0  0  0  0  0  0  0  0  0  0  0
   18.9924   27.4400   19.1966 P   0  0  1  0  0  0  0  0  0  0  0  0
   18.1177   28.4829   19.8605 O   0  0  0  0  0  0  0  0  0  0  0  0
   20.3080   28.1099   18.7220 O   0  0  0  0  0  0  0  0  0  0  0  0
   18.4186   26.4121   18.2910 O   0  0  0  0  0  0  0  0  0  0  0  0
   33.6594   14.4130   15.1002 N   0  0  0  0  0  0  0  0  0  0  0  0
   33.1559   14.3476   13.9280 O   0  0  0  0  0  0  0  0  0  0  0  0
   34.7675   13.9435   15.2888 O   0  0  0  0  0  0  0  0  0  0  0  0
 41 42  4  0
 41 39  4  0
 42 43  4  0
 43 44  4  0
 44 38  4  0
 44 35  4  0
 38 39  4  0
 38 37  4  0
 39 40  1  0
 37 36  4  0
 36 35  4  0
 34 35  1  1
 34 45  1  0
 34 33  1  0
 45 46  1  6
 45 47  1  0
 47 48  1  6
 47 32  1  0
 48 49  1  0
 32 33  1  0
 32 31  1  6
 31 30  1  0
 30 27  1  0
 49 50  2  0
 49 51  1  1
 49 52  1  0
 27 29  1  6
 27 28  2  0
 27 26  1  0
 26 23  1  0
 23 24  2  0
 23 25  1  1
 23 22  1  0
 22 21  1  0
 21 18  1  0
 18 19  1  1
 18 20  1  0
 18 16  1  0
 16 17  1  6
 16 14  1  0
 14 15  2  0
 14 13  1  0
 13 12  1  0
 12 11  1  0
 11  9  1  0
  9 10  2  0
  9  8  1  0
  8  7  1  0
  7  6  1  0
  6  5  1  0
  5  3  1  0
  3  4  2  0
  3  2  1  0
  2  1  1  1
  2 53  1  0
 53 55  1  0
 53 54  2  0
M  CHG  2  53   1  55  -1
M  END
$$$$
