
     RDKit          3D

 31 33  0  0  0  0  0  0  0  0999 V2000
   32.0530  -19.4660   36.2740 N   0  0  0  0  0  0  0  0  0  0  0  0
   31.7610  -20.2610   37.3160 C   0  0  0  0  0  0  0  0  0  0  0  0
   30.5130  -20.3160   37.8040 N   0  0  0  0  0  0  0  0  0  0  0  0
   30.1560  -21.1030   38.8560 C   0  0  0  0  0  0  0  0  0  0  0  0
   31.0320  -21.9310   39.4960 N   0  0  0  0  0  0  0  0  0  0  0  0
   32.3180  -21.9400   39.0960 C   0  0  0  0  0  0  0  0  0  0  0  0
   32.7800  -21.1140   37.9540 C   0  0  0  0  0  0  0  0  0  0  0  0
   34.0920  -21.3730   37.7810 N   0  0  0  0  0  0  0  0  0  0  0  0
   34.4520  -22.2760   38.7480 C   0  0  0  0  0  0  0  0  0  0  0  0
   33.3710  -22.6070   39.5130 N   0  0  0  0  0  0  0  0  0  0  0  0
   33.2470  -23.5530   40.6390 C   0  0  2  0  0  0  0  0  0  0  0  0
   32.8580  -22.9280   41.8570 O   0  0  0  0  0  0  0  0  0  0  0  0
   33.4680  -23.6440   42.9420 C   0  0  2  0  0  0  0  0  0  0  0  0
   34.2090  -22.6260   43.7600 C   0  0  0  0  0  0  0  0  0  0  0  0
   35.4960  -22.5180   43.1530 O   0  0  0  0  0  0  0  0  0  0  0  0
   36.7370  -22.1650   44.1230 P   0  0  2  0  0  0  0  0  0  0  0  0
   37.6360  -21.1700   43.4900 O   0  0  0  0  0  0  0  0  0  0  0  0
   37.3480  -23.5160   44.5080 O   0  0  0  0  0  0  0  0  0  0  0  0
   36.1130  -21.4810   45.4430 O   0  0  0  0  0  0  0  0  0  0  0  0
   35.8950  -19.9160   45.7920 P   0  0  1  0  0  0  0  0  0  0  0  0
   34.7920  -19.3160   44.9910 O   0  0  0  0  0  0  0  0  0  0  0  0
   35.4370  -19.8750   47.3370 O   0  0  0  0  0  0  0  0  0  0  0  0
   37.1910  -19.1020   45.8310 O   0  0  0  0  0  0  0  0  0  0  0  0
   34.3920  -24.6900   42.3200 C   0  0  1  0  0  0  0  0  0  0  0  0
   33.7610  -25.9420   42.1730 O   0  0  0  0  0  0  0  0  0  0  0  0
   33.8660  -27.1890   43.1830 P   0  0  1  0  0  0  0  0  0  0  0  0
   32.8350  -26.8220   44.2170 O   0  0  0  0  0  0  0  0  0  0  0  0
   33.4830  -28.4560   42.4400 O   0  0  0  0  0  0  0  0  0  0  0  0
   35.2550  -27.3990   43.7760 O   0  0  0  0  0  0  0  0  0  0  0  0
   34.5180  -24.3100   40.8650 C   0  0  1  0  0  0  0  0  0  0  0  0
   34.4260  -25.4810   40.0500 O   0  0  0  0  0  0  0  0  0  0  0  0
  4  3  2  0
  5  4  1  0
  6  7  1  0
 10  6  1  0
  6  5  2  0
  7  2  2  0
  7  8  1  0
  2  3  1  0
  2  1  1  0
 19 20  1  0
 16 19  1  0
 20 22  1  1
 20 21  2  0
 20 23  1  0
 16 17  2  0
 16 18  1  1
 15 16  1  0
 14 15  1  0
 13 14  1  1
 12 13  1  0
 13 24  1  0
 11 12  1  0
 11 30  1  0
 11 10  1  6
 30 31  1  6
 30 24  1  0
 24 25  1  6
 25 26  1  0
 26 27  2  0
 26 28  1  6
 26 29  1  0
 10  9  1  0
  9  8  2  0
M  END
$$$$
