
     RDKit          3D

 27 29  0  0  0  0  0  0  0  0999 V2000
   33.3550   -1.9910   17.4280 N   0  0  0  0  0  0  0  0  0  0  0  0
   33.2160   -1.5410   16.1560 C   0  0  0  0  0  0  0  0  0  0  0  0
   33.6880   -2.2070   15.0830 N   0  0  0  0  0  0  0  0  0  0  0  0
   33.5390   -1.7510   13.8200 C   0  0  0  0  0  0  0  0  0  0  0  0
   32.9100   -0.5930   13.5230 N   0  0  0  0  0  0  0  0  0  0  0  0
   32.3870    0.1690   14.5170 C   0  0  0  0  0  0  0  0  0  0  0  0
   32.5150   -0.2660   15.9100 C   0  0  0  0  0  0  0  0  0  0  0  0
   31.9120    0.6590   16.6780 N   0  0  0  0  0  0  0  0  0  0  0  0
   31.4400    1.6350   15.8580 C   0  0  0  0  0  0  0  0  0  0  0  0
   31.7250    1.3250   14.5690 N   0  0  0  0  0  0  0  0  0  0  0  0
   31.3800    2.1360   13.3920 C   0  0  2  0  0  0  0  0  0  0  0  0
   32.1730    3.3290   13.4560 O   0  0  0  0  0  0  0  0  0  0  0  0
   31.3950    4.4680   13.0590 C   0  0  2  0  0  0  0  0  0  0  0  0
   31.3690    5.4240   14.2570 C   0  0  0  0  0  0  0  0  0  0  0  0
   30.6950    4.7530   15.3450 O   0  0  0  0  0  0  0  0  0  0  0  0
   30.6110    5.3690   16.8270 P   0  0  1  0  0  0  0  0  0  0  0  0
   30.0080    4.3670   17.7650 O   0  0  0  0  0  0  0  0  0  0  0  0
   31.9620    5.9330   17.1680 O   0  0  0  0  0  0  0  0  0  0  0  0
   29.5330    6.5280   16.6010 O   0  0  0  0  0  0  0  0  0  0  0  0
   28.7440    7.4030   17.7000 P   0  0  1  0  0  0  0  0  0  0  0  0
   29.4310    7.2180   19.0150 O   0  0  0  0  0  0  0  0  0  0  0  0
   28.9380    8.7930   17.1630 O   0  0  0  0  0  0  0  0  0  0  0  0
   27.2910    6.9340   17.6120 O   0  0  0  0  0  0  0  0  0  0  0  0
   30.0050    3.9290   12.7300 C   0  0  1  0  0  0  0  0  0  0  0  0
   29.9210    3.7110   11.3160 O   0  0  0  0  0  0  0  0  0  0  0  0
   29.9240    2.5910   13.4510 C   0  0  1  0  0  0  0  0  0  0  0  0
   29.0400    1.6740   12.8120 O   0  0  0  0  0  0  0  0  0  0  0  0
 20 22  1  6
 20 21  2  0
 20 23  1  0
 19 20  1  0
 16 18  1  1
 16 17  2  0
 16 19  1  0
 16 15  1  0
 15 14  1  0
 13 14  1  1
 13 12  1  0
 13 24  1  0
 12 11  1  0
 24 25  1  6
 24 26  1  0
 26 27  1  6
 26 11  1  0
 11 10  1  1
 10  9  1  0
 10  6  1  0
  9  8  2  0
  8  7  1  0
  7  2  1  0
  7  6  2  0
  2  1  1  0
  2  3  2  0
  3  4  1  0
  4  5  2  0
  5  6  1  0
M  END
$$$$
