
     RDKit          3D

 20 22  0  0  0  0  0  0  0  0999 V2000
   -6.0180  103.6860  -43.3880 O   0  0  0  0  0  0  0  0  0  0  0  0
   -6.9830  103.7170  -42.7220 C   0  0  0  0  0  0  0  0  0  0  0  0
   -7.1500  102.9830  -41.4970 N   0  0  0  0  0  0  0  0  0  0  0  0
   -8.4540  103.2450  -40.9580 C   0  0  0  0  0  0  0  0  0  0  0  0
   -8.8340  102.7380  -39.9390 O   0  0  0  0  0  0  0  0  0  0  0  0
   -9.1500  104.2280  -41.9290 C   0  0  0  0  0  0  0  0  0  0  0  0
  -10.4340  104.8070  -41.9030 C   0  0  0  0  0  0  0  0  0  0  0  0
  -11.2710  104.4660  -40.7620 N   0  0  0  0  0  0  0  0  0  0  0  0
  -12.6500  104.8730  -40.6430 C   0  0  0  0  0  0  0  0  0  0  0  0
  -13.1100  104.4500  -39.2500 C   0  0  0  0  0  0  0  0  0  0  0  0
  -13.3370  105.4330  -38.3000 C   0  0  0  0  0  0  0  0  0  0  0  0
  -13.7550  105.0920  -37.0260 C   0  0  0  0  0  0  0  0  0  0  0  0
  -13.9390  103.7630  -36.6960 C   0  0  0  0  0  0  0  0  0  0  0  0
  -13.7150  102.7720  -37.6360 C   0  0  0  0  0  0  0  0  0  0  0  0
  -13.9100  101.4350  -37.2660 O   0  0  0  0  0  0  0  0  0  0  0  0
  -13.3000  103.1090  -38.9270 C   0  0  0  0  0  0  0  0  0  0  0  0
  -10.8240  105.6760  -42.9210 C   0  0  0  0  0  0  0  0  0  0  0  0
   -9.9480  105.9610  -43.9780 C   0  0  0  0  0  0  0  0  0  0  0  0
   -8.6710  105.3880  -44.0170 C   0  0  0  0  0  0  0  0  0  0  0  0
   -8.2760  104.5180  -42.9810 C   0  0  0  0  0  0  0  0  0  0  0  0
  6  4  1  0
  4  3  1  0
  4  5  2  0
 20  2  1  0
  2  3  1  0
  2  1  2  0
  6 20  2  0
 20 19  1  0
  7  6  1  0
  7 17  2  0
  8  7  1  0
  9 10  1  0
  9  8  1  0
 10 16  2  0
 10 11  1  0
 16 14  1  0
 14 13  2  0
 14 15  1  0
 13 12  1  0
 12 11  2  0
 17 18  1  0
 18 19  2  0
M  END
$$$$
