
     RDKit          3D

 31 33  0  0  0  0  0  0  0  0999 V2000
  110.6840   -8.7040   -6.4190 C   0  0  0  0  0  0  0  0  0  0  0  0
  111.5330   -9.1330   -7.5550 N   0  0  0  0  0  0  0  0  0  0  0  0
  111.3760  -10.5750   -7.8710 C   0  0  2  0  0  0  0  0  0  0  0  0
  112.7560  -11.2410   -7.8820 C   0  0  1  0  0  0  0  0  0  0  0  0
  113.2610  -11.1890   -6.5570 O   0  0  0  0  0  0  0  0  0  0  0  0
  112.6290  -12.6990   -8.2910 C   0  0  1  0  0  0  0  0  0  0  0  0
  111.8170  -13.3270   -7.3120 O   0  0  0  0  0  0  0  0  0  0  0  0
  112.0760  -14.6980   -7.0120 C   0  0  2  0  0  0  0  0  0  0  0  0
  110.7370  -15.4080   -7.0620 C   0  0  1  0  0  0  0  0  0  0  0  0
  110.2520  -15.3460   -8.3980 O   0  0  0  0  0  0  0  0  0  0  0  0
  110.8980  -16.8630   -6.6500 C   0  0  2  0  0  0  0  0  0  0  0  0
  109.6140  -17.4700   -6.4980 O   0  0  0  0  0  0  0  0  0  0  0  0
  108.9100  -17.8280   -7.6890 C   0  0  1  0  0  0  0  0  0  0  0  0
  109.5090  -18.9940   -8.2610 O   0  0  0  0  0  0  0  0  0  0  0  0
  108.8390  -19.6300   -9.2430 C   0  0  0  0  0  0  0  0  0  0  0  0
  109.6110  -20.5420  -10.1680 C   0  0  0  0  0  0  0  0  0  0  0  0
  110.9530  -19.9860  -10.3970 N   0  0  0  0  0  0  0  0  0  0  0  0
  107.5600  -19.4470   -9.4540 C   0  0  0  0  0  0  0  0  0  0  0  0
  106.7160  -18.5360   -8.5970 C   0  0  0  0  0  0  0  0  0  0  0  0
  107.4670  -18.1610   -7.3100 C   0  0  1  0  0  0  0  0  0  0  0  0
  107.4650  -19.2620   -6.3390 N   0  0  0  0  0  0  0  0  0  0  0  0
  111.5870  -16.9950   -5.2960 C   0  0  1  0  0  0  0  0  0  0  0  0
  111.7490  -18.4320   -5.0170 N   0  0  0  0  0  0  0  0  0  0  0  0
  112.9310  -16.2760   -5.2850 C   0  0  0  0  0  0  0  0  0  0  0  0
  112.6850  -14.8110   -5.6210 C   0  0  1  0  0  0  0  0  0  0  0  0
  113.9420  -14.0650   -5.5530 N   0  0  0  0  0  0  0  0  0  0  0  0
  112.0070  -12.8070   -9.5570 O   0  0  0  0  0  0  0  0  0  0  0  0
  110.7010  -12.2360   -9.6430 C   0  0  0  0  0  0  0  0  0  0  0  0
  110.6980  -10.7650   -9.2270 C   0  0  1  0  0  0  0  0  0  0  0  0
  109.2340  -10.3160   -9.1620 C   0  0  0  0  0  0  0  0  0  0  0  0
  111.4280   -9.9820  -10.1670 O   0  0  0  0  0  0  0  0  0  0  0  0
 13 20  1  0
 13 12  1  1
 13 14  1  0
 25 24  1  0
  8 25  1  0
 25 26  1  6
  6  4  1  0
  6 27  1  0
  6  7  1  1
 20 19  1  0
 20 21  1  1
 24 22  1  0
  4  3  1  0
  4  5  1  1
 19 18  1  0
 11 22  1  0
 22 23  1  6
  3 29  1  0
  3  2  1  6
 15 18  2  0
  9 11  1  0
 11 12  1  1
 28 29  1  0
 29 30  1  1
 29 31  1  0
 15 16  1  0
 14 15  1  0
  8  9  1  0
  9 10  1  6
 27 28  1  0
 16 17  1  0
  8  7  1  1
  2  1  1  0
M  CHG  5   2   1  17   1  21   1  23   1  26   1
M  END
$$$$
