
     RDKit          3D

 31 33  0  0  0  0  0  0  0  0999 V2000
  110.5050   -9.2330   -6.4690 C   0  0  0  0  0  0  0  0  0  0  0  0
  111.3480   -9.6240   -7.6150 N   0  0  0  0  0  0  0  0  0  0  0  0
  111.1960  -11.0700   -7.8800 C   0  0  2  0  0  0  0  0  0  0  0  0
  112.5790  -11.7400   -7.9110 C   0  0  1  0  0  0  0  0  0  0  0  0
  113.1170  -11.6810   -6.5990 O   0  0  0  0  0  0  0  0  0  0  0  0
  112.4530  -13.2110   -8.3090 C   0  0  1  0  0  0  0  0  0  0  0  0
  111.6490  -13.8260   -7.3000 O   0  0  0  0  0  0  0  0  0  0  0  0
  111.9190  -15.1960   -7.0340 C   0  0  2  0  0  0  0  0  0  0  0  0
  110.5950  -15.9560   -7.1100 C   0  0  1  0  0  0  0  0  0  0  0  0
  110.1440  -15.9290   -8.4550 O   0  0  0  0  0  0  0  0  0  0  0  0
  110.7280  -17.4160   -6.6660 C   0  0  2  0  0  0  0  0  0  0  0  0
  109.4690  -18.0780   -6.4760 O   0  0  0  0  0  0  0  0  0  0  0  0
  108.5670  -18.1180   -7.5980 C   0  0  1  0  0  0  0  0  0  0  0  0
  109.0710  -18.9230   -8.6670 O   0  0  0  0  0  0  0  0  0  0  0  0
  108.7850  -20.3030   -8.5140 C   0  0  2  0  0  0  0  0  0  0  0  0
  109.5010  -21.1150   -9.5910 C   0  0  0  0  0  0  0  0  0  0  0  0
  110.7060  -20.4350  -10.0790 N   0  0  0  0  0  0  0  0  0  0  0  0
  107.2810  -20.5460   -8.7060 C   0  0  0  0  0  0  0  0  0  0  0  0
  106.4930  -19.2870   -8.2930 C   0  0  0  0  0  0  0  0  0  0  0  0
  107.2310  -18.6950   -7.1130 C   0  0  1  0  0  0  0  0  0  0  0  0
  107.4410  -19.7950   -6.1920 N   0  0  0  0  0  0  0  0  0  0  0  0
  111.4110  -17.4720   -5.2980 C   0  0  1  0  0  0  0  0  0  0  0  0
  111.6030  -18.8790   -4.9370 N   0  0  0  0  0  0  0  0  0  0  0  0
  112.7580  -16.7620   -5.2950 C   0  0  0  0  0  0  0  0  0  0  0  0
  112.5090  -15.2930   -5.6240 C   0  0  1  0  0  0  0  0  0  0  0  0
  113.7520  -14.5230   -5.5480 N   0  0  0  0  0  0  0  0  0  0  0  0
  111.8560  -13.3130   -9.6110 O   0  0  0  0  0  0  0  0  0  0  0  0
  110.5410  -12.7780   -9.6140 C   0  0  0  0  0  0  0  0  0  0  0  0
  110.5170  -11.2910   -9.2410 C   0  0  1  0  0  0  0  0  0  0  0  0
  109.0560  -10.8350   -9.1830 C   0  0  0  0  0  0  0  0  0  0  0  0
  111.2290  -10.5190  -10.2000 O   0  0  0  0  0  0  0  0  0  0  0  0
 13 12  1  1
 13 20  1  0
 13 14  1  0
 11 12  1  1
 20 21  1  1
 20 19  1  0
 19 18  1  0
 15 18  1  0
 14 15  1  0
 15 16  1  6
 16 17  1  0
 25 26  1  6
 24 25  1  0
 25  8  1  0
 22 24  1  0
 22 23  1  6
 22 11  1  0
 11  9  1  0
  9 10  1  6
  9  8  1  0
  8  7  1  1
  6  7  1  1
  6  4  1  0
  6 27  1  0
  4  5  1  1
  4  3  1  0
  3  2  1  6
  3 29  1  0
  2  1  1  0
 29 31  1  0
 29 28  1  0
 29 30  1  1
 28 27  1  0
M  CHG  5   2   1  17   1  21   1  23   1  26   1
M  END
$$$$
