
     RDKit          3D

 32 34  0  0  0  0  0  0  0  0999 V2000
  111.5050  -20.6060  -10.1730 N   0  0  0  0  0  0  0  0  0  0  0  0
  110.2620  -21.1430   -9.6450 C   0  0  0  0  0  0  0  0  0  0  0  0
  109.8670  -20.4080   -8.4020 C   0  0  1  0  0  0  0  0  0  0  0  0
  109.6350  -19.0030   -8.7530 O   0  0  0  0  0  0  0  0  0  0  0  0
  109.1930  -18.2270   -7.6010 C   0  0  2  0  0  0  0  0  0  0  0  0
  110.1270  -18.1920   -6.5680 O   0  0  0  0  0  0  0  0  0  0  0  0
  111.3890  -17.5460   -6.7410 C   0  0  2  0  0  0  0  0  0  0  0  0
  112.0700  -17.6430   -5.3580 C   0  0  1  0  0  0  0  0  0  0  0  0
  112.2720  -19.0560   -5.0700 N   0  0  0  0  0  0  0  0  0  0  0  0
  113.4090  -16.8880   -5.2470 C   0  0  0  0  0  0  0  0  0  0  0  0
  113.2100  -15.4160   -5.6270 C   0  0  1  0  0  0  0  0  0  0  0  0
  114.4780  -14.6970   -5.5020 N   0  0  0  0  0  0  0  0  0  0  0  0
  112.6650  -15.3460   -7.0530 C   0  0  2  0  0  0  0  0  0  0  0  0
  112.4750  -13.9930   -7.3910 O   0  0  0  0  0  0  0  0  0  0  0  0
  113.3460  -13.4350   -8.3090 C   0  0  1  0  0  0  0  0  0  0  0  0
  112.8550  -13.5280   -9.6820 O   0  0  0  0  0  0  0  0  0  0  0  0
  111.5220  -12.9540   -9.8340 C   0  0  2  0  0  0  0  0  0  0  0  0
  110.9870  -13.2420  -11.2070 C   0  0  0  0  0  0  0  0  0  0  0  0
  111.7130  -12.5510  -12.1810 O   0  0  0  0  0  0  0  0  0  0  0  0
  111.5950  -11.4560   -9.5110 C   0  0  1  0  0  0  0  0  0  0  0  0
  110.2950  -10.8800   -9.6140 O   0  0  0  0  0  0  0  0  0  0  0  0
  112.1470  -11.2580   -8.1240 C   0  0  2  0  0  0  0  0  0  0  0  0
  112.3140   -9.7920   -7.7680 N   0  0  0  0  0  0  0  0  0  0  0  0
  113.4560  -11.9580   -7.9670 C   0  0  1  0  0  0  0  0  0  0  0  0
  113.9100  -11.8740   -6.6260 O   0  0  0  0  0  0  0  0  0  0  0  0
  111.3200  -16.0820   -7.1920 C   0  0  1  0  0  0  0  0  0  0  0  0
  110.9370  -16.0170   -8.5430 O   0  0  0  0  0  0  0  0  0  0  0  0
  107.8950  -18.8550   -7.0470 C   0  0  2  0  0  0  0  0  0  0  0  0
  107.4670  -18.0790   -5.8470 N   0  0  0  0  0  0  0  0  0  0  0  0
  108.0720  -20.2630   -6.6800 C   0  0  0  0  0  0  0  0  0  0  0  0
  108.6180  -21.0460   -7.8070 C   0  0  2  0  0  0  0  0  0  0  0  0
  109.0240  -22.3460   -7.3560 O   0  0  0  0  0  0  0  0  0  0  0  0
  5  6  1  1
  5 28  1  0
  5  4  1  0
  7  6  1  1
 28 29  1  1
 28 30  1  0
 30 31  1  0
 31 32  1  1
  3 31  1  0
  4  3  1  0
  3  2  1  6
  2  1  1  0
 11 12  1  6
 10 11  1  0
 11 13  1  0
  8 10  1  0
  8  9  1  6
  8  7  1  0
  7 26  1  0
 26 27  1  6
 26 13  1  0
 13 14  1  1
 15 14  1  1
 15 24  1  0
 15 16  1  0
 24 25  1  1
 24 22  1  0
 22 23  1  6
 22 20  1  0
 20 21  1  1
 20 17  1  0
 17 16  1  0
 17 18  1  6
 18 19  1  0
M  CHG  5   1   1   9   1  12   1  23   1  29   1
M  END
$$$$
