
     RDKit          3D

 14 15  0  0  0  0  0  0  0  0999 V2000
  -11.6870  -28.9830  -15.4410 O   0  0  0  0  0  0  0  0  0  0  0  0
  -11.4200  -30.1720  -15.1330 C   0  0  0  0  0  0  0  0  0  0  0  0
  -12.3340  -31.0050  -14.8910 O   0  0  0  0  0  0  0  0  0  0  0  0
   -9.9590  -30.5860  -15.0350 C   0  0  0  0  0  0  0  0  0  0  0  0
   -9.2540  -29.9770  -14.0120 C   0  0  0  0  0  0  0  0  0  0  0  0
   -7.9220  -30.2680  -13.8340 C   0  0  0  0  0  0  0  0  0  0  0  0
   -7.2910  -31.1680  -14.6640 C   0  0  0  0  0  0  0  0  0  0  0  0
   -7.9880  -31.7850  -15.6910 C   0  0  0  0  0  0  0  0  0  0  0  0
   -9.3240  -31.4930  -15.8910 C   0  0  0  0  0  0  0  0  0  0  0  0
   -9.9600  -32.0800  -16.9000 N   0  0  0  0  0  0  0  0  0  0  0  0
   -9.9760  -33.3800  -17.1460 C   0  0  0  0  0  0  0  0  0  0  0  0
  -10.7310  -33.5960  -18.2900 C   0  0  0  0  0  0  0  0  0  0  0  0
  -11.1550  -32.3560  -18.7340 C   0  0  0  0  0  0  0  0  0  0  0  0
  -10.6310  -31.4300  -17.8450 C   0  0  0  0  0  0  0  0  0  0  0  0
 12 13  1  0
 11 12  2  0
  8  7  2  0
  7  6  1  0
  9  8  1  0
  9  4  2  0
 10  9  1  0
  4  5  1  0
  4  2  1  0
  5  6  2  0
  2  3  1  0
  2  1  2  0
 10 14  1  0
 10 11  1  0
 14 13  2  0
M  END
$$$$
