
     RDKit          3D

 22 24  0  0  0  0  0  0  0  0999 V2000
   -4.7183  -13.5981  -14.6454 O   0  0  0  0  0  0  0  0  0  0  0  0
   -4.9531  -14.4865  -15.6249 C   0  0  0  0  0  0  0  0  0  0  0  0
   -4.8709  -14.1377  -16.8462 O   0  0  0  0  0  0  0  0  0  0  0  0
   -5.7015  -15.7359  -15.1992 C   0  0  0  0  0  0  0  0  0  0  0  0
   -4.8974  -16.7864  -14.7819 C   0  0  0  0  0  0  0  0  0  0  0  0
   -5.3960  -17.5371  -13.7131 C   0  0  0  0  0  0  0  0  0  0  0  0
   -6.6921  -17.4250  -13.2663 C   0  0  0  0  0  0  0  0  0  0  0  0
   -7.3954  -16.3160  -13.6989 C   0  0  0  0  0  0  0  0  0  0  0  0
   -7.8521  -15.4296  -12.5553 C   0  0  0  0  0  0  0  0  0  0  0  0
   -7.4768  -14.6607  -11.6514 C   0  0  0  0  0  0  0  0  0  0  0  0
   -6.4790  -14.0666  -10.7502 C   0  0  0  0  0  0  0  0  0  0  0  0
   -5.3601  -14.8157  -10.3895 C   0  0  0  0  0  0  0  0  0  0  0  0
   -4.6351  -14.4048   -9.2806 C   0  0  0  0  0  0  0  0  0  0  0  0
   -4.9333  -13.2085   -8.6590 C   0  0  0  0  0  0  0  0  0  0  0  0
   -5.9461  -12.3984   -9.1495 C   0  0  0  0  0  0  0  0  0  0  0  0
   -6.7316  -12.8563  -10.1363 C   0  0  0  0  0  0  0  0  0  0  0  0
   -7.0710  -15.6484  -14.8720 C   0  0  0  0  0  0  0  0  0  0  0  0
   -7.9755  -15.3865  -15.8178 N   0  0  0  0  0  0  0  0  0  0  0  0
   -7.6187  -15.3163  -17.1145 C   0  0  0  0  0  0  0  0  0  0  0  0
   -8.7547  -15.1860  -17.8767 C   0  0  0  0  0  0  0  0  0  0  0  0
   -9.8557  -15.1967  -16.9662 C   0  0  0  0  0  0  0  0  0  0  0  0
   -9.2724  -15.2216  -15.6973 C   0  0  0  0  0  0  0  0  0  0  0  0
 11 16  4  0
 16 15  4  0
 14 13  4  0
 15 14  4  0
 19 20  4  0
 18 19  4  0
 21 20  4  0
 22 21  4  0
 10 11  1  0
 11 12  4  0
  4  2  1  0
  2  1  2  0
  2  3  1  0
  4  5  4  0
 17  4  4  0
  6  5  4  0
  7  6  4  0
  8  7  4  0
  8 17  4  0
  9  8  1  0
 17 18  1  0
 18 22  4  0
  9 10  3  0
 12 13  4  0
M  END
$$$$
