
     RDKit          3D

 34 38  0  0  0  0  0  0  0  0999 V2000
   25.2710   -5.6200   11.3880 N   0  0  0  0  0  0  0  0  0  0  0  0
   25.9170   -4.5180   11.8220 C   0  0  0  0  0  0  0  0  0  0  0  0
   25.4710   -3.8200   12.7750 O   0  0  0  0  0  0  0  0  0  0  0  0
   27.1560   -4.0910   11.0840 C   0  0  0  0  0  0  0  0  0  0  0  0
   27.9160   -3.0520   11.6300 C   0  0  0  0  0  0  0  0  0  0  0  0
   29.0410   -2.5620   10.9780 C   0  0  0  0  0  0  0  0  0  0  0  0
   29.4330   -3.0750    9.7580 C   0  0  0  0  0  0  0  0  0  0  0  0
   28.6840   -4.1080    9.1990 C   0  0  0  0  0  0  0  0  0  0  0  0
   27.5760   -4.6280    9.8700 C   0  0  0  0  0  0  0  0  0  0  0  0
   27.0820   -5.7340    9.2160 O   0  0  0  0  0  0  0  0  0  0  0  0
   27.8500   -5.9320    8.0770 C   0  0  2  0  0  0  0  0  0  0  0  0
   27.7460   -6.9950    7.2740 C   0  0  0  0  0  0  0  0  0  0  0  0
   26.5940   -7.7990    6.8940 C   0  0  0  0  0  0  0  0  0  0  0  0
   25.3740   -7.8140    7.5770 C   0  0  0  0  0  0  0  0  0  0  0  0
   24.3800   -8.7190    7.2440 C   0  0  0  0  0  0  0  0  0  0  0  0
   24.5610   -9.6240    6.2020 C   0  0  0  0  0  0  0  0  0  0  0  0
   23.5160  -10.6370    5.8380 C   0  0  0  0  0  0  0  0  0  0  0  0
   23.0730  -10.6290    4.7230 O   0  0  0  0  0  0  0  0  0  0  0  0
   23.1150  -11.5570    6.7450 N   0  0  0  0  0  0  0  0  0  0  0  0
   22.1620  -12.6070    6.3490 C   0  0  0  0  0  0  0  0  0  0  0  0
   21.0080  -12.6670    7.3200 C   0  0  0  0  0  0  0  0  0  0  0  0
   21.5210  -12.8770    8.6760 N   0  0  0  0  0  0  0  0  0  0  0  0
   21.1270  -13.8910    9.4860 C   0  0  0  0  0  0  0  0  0  0  0  0
   20.2890  -14.8040    8.9510 N   0  0  0  0  0  0  0  0  0  0  0  0
   19.9580  -15.8210    9.7590 C   0  0  0  0  0  0  0  0  0  0  0  0
   20.4240  -15.9500   11.0470 C   0  0  0  0  0  0  0  0  0  0  0  0
   21.2580  -14.9450   11.4960 C   0  0  0  0  0  0  0  0  0  0  0  0
   21.6290  -13.8980   10.7420 N   0  0  0  0  0  0  0  0  0  0  0  0
   22.4350  -11.8070    9.0850 C   0  0  0  0  0  0  0  0  0  0  0  0
   23.5920  -11.7150    8.1280 C   0  0  0  0  0  0  0  0  0  0  0  0
   25.7630   -9.5930    5.5020 C   0  0  0  0  0  0  0  0  0  0  0  0
   26.7600   -8.6960    5.8470 C   0  0  0  0  0  0  0  0  0  0  0  0
   28.8810   -4.9060    7.9980 C   0  0  0  0  0  0  0  0  0  0  0  0
   29.7210   -4.7400    7.0530 O   0  0  0  0  0  0  0  0  0  0  0  0
 18 17  2  0
 17 19  1  0
 17 16  1  0
 19 20  1  0
 19 30  1  0
 20 21  1  0
 21 22  1  0
 22 23  1  0
 22 29  1  0
 23 24  2  0
 23 28  1  0
 24 25  1  0
 25 26  2  0
 26 27  1  0
 27 28  2  0
 29 30  1  0
 16 15  2  0
 16 31  1  0
 15 14  1  0
 14 13  2  0
 31 32  2  0
 32 13  1  0
 13 12  1  0
 11 12  1  1
 11 33  1  0
 11 10  1  0
 33 34  2  0
 33  8  1  0
 10  9  1  0
  9  4  2  0
  9  8  1  0
  4  2  1  0
  4  5  1  0
  2  3  2  0
  2  1  1  0
  8  7  2  0
  7  6  1  0
  6  5  2  0
M  END
$$$$
