
     RDKit          3D

 34 38  0  0  0  0  0  0  0  0999 V2000
   26.7171   -5.5062   12.8870 N   0  0  0  0  0  0  0  0  0  0  0  0
   26.6941   -4.1675   12.7577 C   0  0  0  0  0  0  0  0  0  0  0  0
   25.7037   -3.5434   13.0994 O   0  0  0  0  0  0  0  0  0  0  0  0
   27.7625   -3.5465   11.8933 C   0  0  0  0  0  0  0  0  0  0  0  0
   28.0227   -2.1755   12.1554 C   0  0  0  0  0  0  0  0  0  0  0  0
   28.3044   -1.2620   11.1082 C   0  0  0  0  0  0  0  0  0  0  0  0
   28.4522   -1.7748    9.8172 C   0  0  0  0  0  0  0  0  0  0  0  0
   28.3366   -3.1313    9.5452 C   0  0  0  0  0  0  0  0  0  0  0  0
   28.1342   -4.0036   10.6320 C   0  0  0  0  0  0  0  0  0  0  0  0
   28.6771   -5.2806   10.3272 O   0  0  0  0  0  0  0  0  0  0  0  0
   29.0485   -5.2509    8.9656 C   0  0  0  0  0  0  0  0  0  0  0  0
   29.2298   -6.3658    8.2693 C   0  0  0  0  0  0  0  0  0  0  0  0
   28.4957   -7.6147    8.2158 C   0  0  0  0  0  0  0  0  0  0  0  0
   29.0628   -8.9611    8.2634 C   0  0  0  0  0  0  0  0  0  0  0  0
   28.3597   -9.9264    8.8318 C   0  0  0  0  0  0  0  0  0  0  0  0
   27.0374   -9.7665    9.1909 C   0  0  0  0  0  0  0  0  0  0  0  0
   26.1888  -11.0060    9.4885 C   0  0  0  0  0  0  0  0  0  0  0  0
   25.4061  -11.0289   10.4419 O   0  0  0  0  0  0  0  0  0  0  0  0
   26.0474  -11.8926    8.5197 N   0  0  0  0  0  0  0  0  0  0  0  0
   26.7463  -13.2018    8.5623 C   0  0  0  0  0  0  0  0  0  0  0  0
   27.2136  -13.5430    9.9722 C   0  0  0  0  0  0  0  0  0  0  0  0
   26.0860  -13.4114   10.9393 C   0  0  0  0  0  0  0  0  0  0  0  0
   24.7882  -13.5681   10.6042 N   0  0  0  0  0  0  0  0  0  0  0  0
   24.1846  -14.2424   11.6240 C   0  0  0  0  0  0  0  0  0  0  0  0
   23.1144  -15.1207   11.6656 C   0  0  0  0  0  0  0  0  0  0  0  0
   23.0081  -16.0849   12.6397 C   0  0  0  0  0  0  0  0  0  0  0  0
   23.9070  -16.0266   13.6961 C   0  0  0  0  0  0  0  0  0  0  0  0
   24.8762  -15.0340   13.8069 C   0  0  0  0  0  0  0  0  0  0  0  0
   25.0942  -14.2562   12.6938 C   0  0  0  0  0  0  0  0  0  0  0  0
   26.2665  -13.5652   12.2575 N   0  0  0  0  0  0  0  0  0  0  0  0
   26.4609   -8.5149    9.1015 C   0  0  0  0  0  0  0  0  0  0  0  0
   27.1405   -7.4706    8.4218 C   0  0  0  0  0  0  0  0  0  0  0  0
   28.7291   -3.9504    8.4147 C   0  0  0  0  0  0  0  0  0  0  0  0
   28.6309   -3.6229    7.1871 O   0  0  0  0  0  0  0  0  0  0  0  0
  2  1  1  0
  2  3  2  0
  4  2  1  0
  4  5  4  0
  9  4  4  0
 14 15  4  0
 13 14  4  0
 15 16  4  0
 16 17  1  0
 16 31  4  0
 17 19  1  0
 17 18  2  0
  6  5  4  0
  7  6  4  0
  8  7  4  0
 33  8  1  0
  8  9  4  0
 11 33  1  0
 33 34  2  0
 12 11  2  3
 11 10  1  0
 12 13  1  0
 13 32  4  0
 19 20  1  0
 20 21  1  0
 21 22  1  0
 22 23  4  0
 22 30  4  0
 23 24  4  0
 24 25  4  0
 24 29  4  0
 25 26  4  0
 26 27  4  0
 27 28  4  0
 28 29  4  0
 29 30  4  0
 31 32  4  0
 10  9  1  0
M  END
$$$$
