
     RDKit          3D

 55 59  0  0  0  0  0  0  0  0999 V2000
   -3.2930    4.3730    2.4940 C   0  0  0  0  0  0  0  0  0  0  0  0
   -3.5250    5.8150    2.8100 C   0  0  0  0  0  0  0  0  0  0  0  0
   -4.0680    6.1140    3.8300 O   0  0  0  0  0  0  0  0  0  0  0  0
   -2.9420    6.7110    2.0600 N   0  0  0  0  0  0  0  0  0  0  0  0
   -2.9310    8.1040    2.4080 C   0  0  1  0  0  0  0  0  0  0  0  0
   -2.1140    8.9610    1.4260 C   0  0  0  0  0  0  0  0  0  0  0  0
   -0.7620    9.5820    1.7110 C   0  0  1  0  0  0  0  0  0  0  0  0
   -0.4220   10.6050    0.6260 C   0  0  0  0  0  0  0  0  0  0  0  0
   -0.6400   10.2620    3.0480 C   0  0  0  0  0  0  0  0  0  0  0  0
   -4.3350    8.6540    2.4080 C   0  0  0  0  0  0  0  0  0  0  0  0
   -4.6320    9.4760    3.2100 O   0  0  0  0  0  0  0  0  0  0  0  0
   -5.1360    8.3500    1.5420 N   0  0  0  0  0  0  0  0  0  0  0  0
   -6.4490    8.9490    1.3340 C   0  0  1  0  0  0  0  0  0  0  0  0
   -6.7360    9.0180   -0.1690 C   0  0  0  0  0  0  0  0  0  0  0  0
   -5.9240   10.0770   -0.8920 C   0  0  0  0  0  0  0  0  0  0  0  0
   -4.8280    9.8900   -1.6950 C   0  0  0  0  0  0  0  0  0  0  0  0
   -4.3800   11.0990   -2.1760 N   0  0  0  0  0  0  0  0  0  0  0  0
   -5.1800   12.0940   -1.6830 C   0  0  0  0  0  0  0  0  0  0  0  0
   -5.1270   13.4680   -1.8910 C   0  0  0  0  0  0  0  0  0  0  0  0
   -6.0780   14.2330   -1.2700 C   0  0  0  0  0  0  0  0  0  0  0  0
   -7.0530   13.6660   -0.4610 C   0  0  0  0  0  0  0  0  0  0  0  0
   -7.1070   12.2990   -0.2480 C   0  0  0  0  0  0  0  0  0  0  0  0
   -6.1600   11.4890   -0.8700 C   0  0  0  0  0  0  0  0  0  0  0  0
   -7.5490    8.2250    2.1020 C   0  0  0  0  0  0  0  0  0  0  0  0
   -8.7340    8.3430    1.7790 O   0  0  0  0  0  0  0  0  0  0  0  0
   -7.1800    7.5160    3.1490 N   0  0  0  0  0  0  0  0  0  0  0  0
   -8.1360    6.7770    3.9400 C   0  0  1  0  0  0  0  0  0  0  0  0
   -7.9650    5.2780    3.6940 C   0  0  0  0  0  0  0  0  0  0  0  0
   -8.3520    4.8670    2.3310 C   0  0  0  0  0  0  0  0  0  0  0  0
   -7.5180    4.6480    1.2810 C   0  0  0  0  0  0  0  0  0  0  0  0
   -8.2420    4.2910    0.1690 N   0  0  0  0  0  0  0  0  0  0  0  0
   -9.5730    4.2760    0.4920 C   0  0  0  0  0  0  0  0  0  0  0  0
  -10.6850    3.9780   -0.2890 C   0  0  0  0  0  0  0  0  0  0  0  0
  -11.9130    4.0480    0.3090 C   0  0  0  0  0  0  0  0  0  0  0  0
  -12.0510    4.4070    1.6560 C   0  0  0  0  0  0  0  0  0  0  0  0
  -10.9470    4.7010    2.4350 C   0  0  0  0  0  0  0  0  0  0  0  0
   -9.6800    4.6390    1.8510 C   0  0  0  0  0  0  0  0  0  0  0  0
   -7.8780    7.0800    5.4040 C   0  0  0  0  0  0  0  0  0  0  0  0
   -6.7600    7.4490    5.7770 O   0  0  0  0  0  0  0  0  0  0  0  0
   -8.8980    6.9700    6.2480 N   0  0  0  0  0  0  0  0  0  0  0  0
  -10.3210    6.7020    5.9590 C   0  0  0  0  0  0  0  0  0  0  0  0
  -10.8880    6.3870    7.3130 C   0  0  0  0  0  0  0  0  0  0  0  0
  -10.0970    7.1640    8.2650 C   0  0  0  0  0  0  0  0  0  0  0  0
   -8.6800    7.2020    7.6720 C   0  0  1  0  0  0  0  0  0  0  0  0
   -7.7980    6.1200    8.2780 C   0  0  0  0  0  0  0  0  0  0  0  0
   -7.6550    5.0220    7.7380 O   0  0  0  0  0  0  0  0  0  0  0  0
   -7.2030    6.4520    9.4290 N   0  0  0  0  0  0  0  0  0  0  0  0
   -6.4330    5.4840   10.2160 C   0  0  1  0  0  0  0  0  0  0  0  0
   -5.1860    6.1380   10.8060 C   0  0  0  0  0  0  0  0  0  0  0  0
   -4.2790    6.7160    9.7620 C   0  0  0  0  0  0  0  0  0  0  0  0
   -3.8360    7.8650    9.9540 O   0  0  0  0  0  0  0  0  0  0  0  0
   -4.0260    6.0310    8.7420 O   0  0  0  0  0  1  0  0  0  0  0  0
   -7.2600    4.9390   11.3790 C   0  0  0  0  0  0  0  0  0  0  0  0
   -8.3620    5.4010   11.7000 O   0  0  0  0  0  0  0  0  0  0  0  0
   -6.8230    4.0150   12.0520 O   0  0  0  0  0  1  0  0  0  0  0  0
  2  3  2  0
  2  1  1  0
  2  4  1  0
  4  5  1  0
  5 10  1  0
  5  6  1  6
 10 11  2  0
 10 12  1  0
  6  7  1  0
  7  8  1  6
  7  9  1  0
 12 13  1  0
 13 24  1  0
 13 14  1  6
 24 25  2  0
 24 26  1  0
 14 15  1  0
 15 16  2  0
 15 23  1  0
 16 17  1  0
 23 18  2  0
 23 22  1  0
 17 18  1  0
 18 19  1  0
 22 21  2  0
 19 20  2  0
 21 20  1  0
 26 27  1  0
 27 38  1  0
 27 28  1  1
 38 39  2  0
 38 40  1  0
 28 29  1  0
 29 30  2  0
 29 37  1  0
 30 31  1  0
 37 32  2  0
 37 36  1  0
 31 32  1  0
 32 33  1  0
 36 35  2  0
 33 34  2  0
 35 34  1  0
 40 44  1  0
 40 41  1  0
 44 45  1  1
 44 43  1  0
 45 46  2  0
 45 47  1  0
 43 42  1  0
 42 41  1  0
 47 48  1  0
 48 53  1  0
 48 49  1  1
 53 55  1  0
 53 54  2  0
 49 50  1  0
 50 52  1  0
 50 51  2  0
M  CHG  2  52  -1  55  -1
M  END
$$$$
