
     RDKit          3D

 42 44  0  0  0  0  0  0  0  0999 V2000
    5.2410  -17.5840   33.2960 C   0  0  0  0  0  0  0  0  0  0  0  0
    4.5210  -18.6420   34.1130 C   0  0  0  0  0  0  0  0  0  0  0  0
    4.1520  -19.9690   33.3700 C   0  0  0  0  0  0  0  0  0  0  0  0
    3.5190  -19.7870   31.9990 N   0  0  0  0  0  0  0  0  0  0  0  0
    2.2790  -19.0550   31.9290 C   0  0  0  0  0  0  0  0  0  0  0  0
    2.0540  -18.0950   30.9210 C   0  0  0  0  0  0  0  0  0  0  0  0
    0.8700  -17.3450   30.8110 C   0  0  0  0  0  0  0  0  0  0  0  0
   -0.1380  -17.5710   31.7670 C   0  0  0  0  0  0  0  0  0  0  0  0
    0.0450  -18.5410   32.7800 C   0  0  0  0  0  0  0  0  0  0  0  0
    1.2430  -19.2390   32.8500 C   0  0  0  0  0  0  0  0  0  0  0  0
   -1.0700  -18.6950   33.7670 C   0  0  0  0  0  0  0  0  0  0  0  0
   -0.6810  -18.9740   34.9490 O   0  0  0  0  0  0  0  0  0  0  0  0
   -2.4260  -18.5660   33.5750 N   0  0  0  0  0  0  0  0  0  0  0  0
   -3.5660  -18.6160   34.5310 C   0  0  2  0  0  0  0  0  0  0  0  0
   -4.2200  -20.0560   34.8720 C   0  0  0  0  0  0  0  0  0  0  0  0
   -3.3040  -21.1890   35.0570 N   0  0  0  0  0  0  0  0  0  0  0  0
   -2.5540  -21.2850   36.3330 C   0  0  1  0  0  0  0  0  0  0  0  0
   -3.1560  -20.6040   37.6320 C   0  0  0  0  0  0  0  0  0  0  0  0
   -2.4290  -19.6890   38.1030 O   0  0  0  0  0  0  0  0  0  0  0  0
   -4.3410  -20.8770   38.3040 N   0  0  0  0  0  0  0  0  0  0  0  0
   -4.8010  -20.1280   39.5430 C   0  0  0  0  0  0  0  0  0  0  0  0
   -4.9910  -20.9700   40.8570 C   0  0  1  0  0  0  0  0  0  0  0  0
   -5.0160  -20.0870   42.1400 C   0  0  0  0  0  0  0  0  0  0  0  0
   -6.2530  -21.8350   40.8110 C   0  0  0  0  0  0  0  0  0  0  0  0
   -1.9770  -22.7090   36.6040 C   0  0  2  0  0  0  0  0  0  0  0  0
   -2.4620  -23.3260   37.9380 C   0  0  0  0  0  0  0  0  0  0  0  0
   -0.5980  -22.5360   36.6160 O   0  0  0  0  0  0  0  0  0  0  0  0
   -4.5980  -17.5940   33.9280 C   0  0  0  0  0  0  0  0  0  0  0  0
   -3.9560  -16.3120   33.3360 C   0  0  0  0  0  0  0  0  0  0  0  0
   -3.4990  -15.2530   34.1450 C   0  0  0  0  0  0  0  0  0  0  0  0
   -2.9150  -14.1140   33.5810 C   0  0  0  0  0  0  0  0  0  0  0  0
   -2.7580  -13.9890   32.1930 C   0  0  0  0  0  0  0  0  0  0  0  0
   -3.1970  -15.0070   31.3360 C   0  0  0  0  0  0  0  0  0  0  0  0
   -3.7700  -16.1300   31.9510 C   0  0  0  0  0  0  0  0  0  0  0  0
   -3.0480  -14.9250   29.8120 C   0  0  0  0  0  0  0  0  0  0  0  0
   -1.8270  -15.6380   29.2480 C   0  0  0  0  0  0  0  0  0  0  0  0
   -0.4430  -15.2430   29.7840 C   0  0  0  0  0  0  0  0  0  0  0  0
    0.6570  -16.3020   29.7040 C   0  0  0  0  0  0  0  0  0  0  0  0
    4.2920  -20.4050   30.6340 S   0  0  2  0  0  0  0  0  0  0  0  0
    5.4380  -19.2280   30.1020 C   0  0  0  0  0  0  0  0  0  0  0  0
    3.3040  -20.5700   29.6430 O   0  0  0  0  0  0  0  0  0  0  0  0
    5.0370  -21.5650   30.9660 O   0  0  0  0  0  0  0  0  0  0  0  0
 22 23  1  1
 21 22  1  0
 22 24  1  0
  8  7  2  0
  9  8  1  0
  7 38  1  0
  7  6  1  0
 38 37  1  0
 37 36  1  0
 36 35  1  0
 35 33  1  0
 33 32  2  0
 33 34  1  0
 32 31  1  0
 31 30  2  0
 11 12  2  0
 13 11  1  0
 11  9  1  0
 14 13  1  0
 14 28  1  0
 14 15  1  6
 28 29  1  0
 16 15  1  0
 17 16  1  6
 17 25  1  0
 18 17  1  0
 25 27  1  0
 25 26  1  1
 20 18  1  0
 18 19  2  0
 20 21  1  0
  9 10  2  0
 30 29  1  0
 29 34  2  0
  6  5  2  0
  5  4  1  0
  5 10  1  0
  4  3  1  0
  4 39  1  0
  3  2  1  0
  2  1  1  0
 39 41  2  0
 39 40  1  6
 39 42  2  0
M  CHG  1  16   1
M  END
$$$$
