
     RDKit          3D

 44 46  0  0  0  0  0  0  0  0999 V2000
   -0.3368  -25.4407   37.3454 C   0  0  0  0  0  0  0  0  0  0  0  0
   -0.7343  -23.9454   37.3253 C   0  0  0  0  0  0  0  0  0  0  0  0
   -2.2203  -23.6689   37.4865 C   0  0  0  0  0  0  0  0  0  0  0  0
   -2.7947  -22.9436   36.2175 C   0  0  1  0  0  0  0  0  0  0  0  0
   -4.1633  -22.6935   36.4915 O   0  0  0  0  0  0  0  0  0  0  0  0
   -2.2383  -21.5764   35.9614 C   0  0  1  0  0  0  0  0  0  0  0  0
   -2.5974  -21.1963   34.6050 N   0  0  0  0  0  0  0  0  0  0  0  0
   -3.8097  -20.3695   34.5181 C   0  0  0  0  0  0  0  0  0  0  0  0
   -3.3910  -18.8945   34.2014 C   0  0  2  0  0  0  0  0  0  0  0  0
   -4.5169  -17.9732   33.6059 C   0  0  0  0  0  0  0  0  0  0  0  0
   -3.9684  -16.6799   33.0502 C   0  0  0  0  0  0  0  0  0  0  0  0
   -3.7021  -15.5555   33.8785 C   0  0  0  0  0  0  0  0  0  0  0  0
   -3.3573  -14.3094   33.3184 C   0  0  0  0  0  0  0  0  0  0  0  0
   -3.1550  -14.1917   31.9291 C   0  0  0  0  0  0  0  0  0  0  0  0
   -3.2801  -15.2761   31.0719 C   0  0  0  0  0  0  0  0  0  0  0  0
   -3.8014  -16.4725   31.6714 C   0  0  0  0  0  0  0  0  0  0  0  0
   -3.1238  -15.1656   29.5469 C   0  0  0  0  0  0  0  0  0  0  0  0
   -1.9411  -16.0210   28.9718 C   0  0  0  0  0  0  0  0  0  0  0  0
   -0.5773  -15.4789   29.4435 C   0  0  0  0  0  0  0  0  0  0  0  0
    0.6299  -16.3879   29.3641 C   0  0  0  0  0  0  0  0  0  0  0  0
    0.8677  -17.4216   30.5358 C   0  0  0  0  0  0  0  0  0  0  0  0
   -0.1347  -17.6903   31.5290 C   0  0  0  0  0  0  0  0  0  0  0  0
    0.1114  -18.6200   32.5377 C   0  0  0  0  0  0  0  0  0  0  0  0
    1.3816  -19.1459   32.6379 C   0  0  0  0  0  0  0  0  0  0  0  0
    2.4397  -18.7972   31.8204 C   0  0  0  0  0  0  0  0  0  0  0  0
    3.6932  -19.3969   31.9171 N   0  0  0  0  0  0  0  0  0  0  0  0
    4.5157  -19.1551   33.1859 C   0  0  0  0  0  0  0  0  0  0  0  0
    6.0414  -19.1054   32.9710 C   0  0  0  0  0  0  0  0  0  0  0  0
    6.4753  -19.0742   31.5453 C   0  0  0  0  0  0  0  0  0  0  0  0
    4.3874  -20.2381   30.6117 S   0  0  1  0  0  0  0  0  0  0  0  0
    4.3147  -19.2710   29.3957 C   0  0  0  0  0  0  0  0  0  0  0  0
    5.7123  -20.6304   30.9770 O   0  0  0  0  0  0  0  0  0  0  0  0
    3.5686  -21.3686   30.2940 O   0  0  0  0  0  0  0  0  0  0  0  0
    2.1354  -18.0035   30.7292 C   0  0  0  0  0  0  0  0  0  0  0  0
   -0.8847  -18.8454   33.5530 C   0  0  0  0  0  0  0  0  0  0  0  0
   -0.5218  -18.8996   34.7465 O   0  0  0  0  0  0  0  0  0  0  0  0
   -2.2683  -18.7886   33.2942 N   0  0  0  0  0  0  0  0  0  0  0  0
   -2.7744  -20.5369   36.8836 C   0  0  0  0  0  0  0  0  0  0  0  0
   -2.1311  -19.4624   36.9143 O   0  0  0  0  0  0  0  0  0  0  0  0
   -3.8687  -20.7401   37.6776 N   0  0  0  0  0  0  0  0  0  0  0  0
   -3.8804  -20.9890   39.1208 C   0  0  0  0  0  0  0  0  0  0  0  0
   -5.0316  -20.3367   39.9847 C   0  0  1  0  0  0  0  0  0  0  0  0
   -6.3410  -20.7676   39.4171 C   0  0  0  0  0  0  0  0  0  0  0  0
   -5.0692  -20.7785   41.4121 C   0  0  0  0  0  0  0  0  0  0  0  0
 36 35  2  0
 35 23  1  0
 35 37  1  0
 23 22  4  0
 23 24  4  0
 22 21  4  0
 21 20  1  0
 21 34  4  0
 20 19  1  0
 19 18  1  0
 18 17  1  0
 17 15  1  0
 15 14  4  0
 15 16  4  0
 14 13  4  0
 13 12  4  0
 12 11  4  0
 11 10  1  0
 11 16  4  0
 10  9  1  0
  9  8  1  6
  9 37  1  0
  8  7  1  0
  6  7  1  1
  6 38  1  0
  6  4  1  0
 38 40  1  0
 38 39  2  0
 40 41  1  0
 41 42  1  0
 42 43  1  1
 42 44  1  0
  4  5  1  6
  4  3  1  0
  3  2  1  0
  2  1  1  0
 34 25  4  0
 25 26  1  0
 25 24  4  0
 26 27  1  0
 26 30  1  0
 27 28  1  0
 28 29  1  0
 30 32  2  0
 30 31  1  6
 30 33  2  0
M  CHG  1   7   1
M  END
$$$$
