
     RDKit          3D

 44 46  0  0  0  0  0  0  0  0999 V2000
   -0.5380  -25.4940   39.0310 C   0  0  0  0  0  0  0  0  0  0  0  0
   -0.5140  -24.5580   37.8150 C   0  0  0  0  0  0  0  0  0  0  0  0
   -1.6870  -23.5610   37.7620 C   0  0  0  0  0  0  0  0  0  0  0  0
   -1.7590  -22.8790   36.3780 C   0  0  2  0  0  0  0  0  0  0  0  0
   -0.5560  -22.1220   36.2150 O   0  0  0  0  0  0  0  0  0  0  0  0
   -2.9030  -21.8490   36.2350 C   0  0  2  0  0  0  0  0  0  0  0  0
   -2.5790  -21.0300   35.0420 N   0  0  0  0  0  0  0  0  0  0  0  0
   -3.7170  -20.2060   34.5940 C   0  0  0  0  0  0  0  0  0  0  0  0
   -3.2280  -18.7440   34.2920 C   0  0  2  0  0  0  0  0  0  0  0  0
   -4.2870  -17.7830   33.6740 C   0  0  0  0  0  0  0  0  0  0  0  0
   -3.6740  -16.5120   33.1090 C   0  0  0  0  0  0  0  0  0  0  0  0
   -3.1690  -15.4940   33.9560 C   0  0  0  0  0  0  0  0  0  0  0  0
   -2.5770  -14.3330   33.3980 C   0  0  0  0  0  0  0  0  0  0  0  0
   -2.4470  -14.1910   31.9970 C   0  0  0  0  0  0  0  0  0  0  0  0
   -2.9180  -15.1770   31.1410 C   0  0  0  0  0  0  0  0  0  0  0  0
   -3.4920  -16.3180   31.7280 C   0  0  0  0  0  0  0  0  0  0  0  0
   -2.7640  -15.0520   29.6170 C   0  0  0  0  0  0  0  0  0  0  0  0
   -1.6400  -15.9480   29.0220 C   0  0  0  0  0  0  0  0  0  0  0  0
   -0.2640  -15.5280   29.4960 C   0  0  0  0  0  0  0  0  0  0  0  0
    0.9110  -16.5010   29.4220 C   0  0  0  0  0  0  0  0  0  0  0  0
    1.0930  -17.5190   30.5760 C   0  0  0  0  0  0  0  0  0  0  0  0
    0.0970  -17.7330   31.5700 C   0  0  0  0  0  0  0  0  0  0  0  0
    0.2830  -18.6860   32.5980 C   0  0  0  0  0  0  0  0  0  0  0  0
    1.4900  -19.3720   32.6340 C   0  0  0  0  0  0  0  0  0  0  0  0
    2.4890  -19.2010   31.7030 C   0  0  0  0  0  0  0  0  0  0  0  0
    3.6970  -19.9170   31.7690 N   0  0  0  0  0  0  0  0  0  0  0  0
    4.3130  -20.2050   33.1610 C   0  0  0  0  0  0  0  0  0  0  0  0
    4.7640  -18.9600   33.9360 C   0  0  0  0  0  0  0  0  0  0  0  0
    5.4660  -17.9190   33.1210 C   0  0  0  0  0  0  0  0  0  0  0  0
    4.4560  -20.4620   30.3600 S   0  0  1  0  0  0  0  0  0  0  0  0
    5.2280  -21.7700   30.7410 C   0  0  0  0  0  0  0  0  0  0  0  0
    3.4700  -20.6950   29.3640 O   0  0  0  0  0  0  0  0  0  0  0  0
    5.4360  -19.4990   29.9370 O   0  0  0  0  0  0  0  0  0  0  0  0
    2.2760  -18.2700   30.6810 C   0  0  0  0  0  0  0  0  0  0  0  0
   -0.7350  -18.8550   33.5970 C   0  0  0  0  0  0  0  0  0  0  0  0
   -0.3750  -19.1010   34.7730 O   0  0  0  0  0  0  0  0  0  0  0  0
   -2.0920  -18.7180   33.3510 N   0  0  0  0  0  0  0  0  0  0  0  0
   -2.9790  -20.9800   37.4660 C   0  0  0  0  0  0  0  0  0  0  0  0
   -2.0680  -20.1130   37.6040 O   0  0  0  0  0  0  0  0  0  0  0  0
   -3.9530  -21.0670   38.4070 N   0  0  0  0  0  0  0  0  0  0  0  0
   -4.0250  -20.2720   39.6260 C   0  0  0  0  0  0  0  0  0  0  0  0
   -5.2530  -20.5100   40.5720 C   0  0  2  0  0  0  0  0  0  0  0  0
   -4.8500  -20.1540   42.0010 C   0  0  0  0  0  0  0  0  0  0  0  0
   -5.7720  -21.9070   40.5960 C   0  0  0  0  0  0  0  0  0  0  0  0
 36 35  2  0
 35 23  1  0
 35 37  1  0
 23 22  1  0
 23 24  2  0
 22 21  2  0
 21 20  1  0
 21 34  1  0
 20 19  1  0
 19 18  1  0
 18 17  1  0
 17 15  1  0
 15 14  1  0
 15 16  2  0
 14 13  2  0
 13 12  1  0
 12 11  2  0
 11 10  1  0
 11 16  1  0
 10  9  1  0
  9  8  1  6
  9 37  1  0
  8  7  1  0
  6  7  1  6
  6 38  1  0
  6  4  1  0
 38 40  1  0
 38 39  2  0
 40 41  1  0
 41 42  1  0
 42 43  1  1
 42 44  1  0
  4  5  1  1
  4  3  1  0
  3  2  1  0
  2  1  1  0
 34 25  2  0
 25 26  1  0
 25 24  1  0
 26 27  1  0
 26 30  1  0
 27 28  1  0
 28 29  1  0
 30 32  2  0
 30 31  1  1
 30 33  2  0
M  CHG  1   7   1
M  END
$$$$
