
     RDKit          3D

  8  7  0  0  0  0  0  0  0  0999 V2000
    4.4060   -1.9250    2.6080 C   0  0  0  0  0  0  0  0  0  0  0  0
    3.6840   -0.7830    2.8810 O   0  0  0  0  0  0  0  0  0  0  0  0
    2.2430   -0.8440    2.8340 C   0  0  0  0  0  0  0  0  0  0  0  0
    1.6840    0.3400    3.5930 C   0  0  0  0  0  0  0  0  0  0  0  0
    0.2390    0.8120    3.3830 C   0  0  1  0  0  0  0  0  0  0  0  0
    0.1930    1.6930    2.2330 O   0  0  0  0  0  0  0  0  0  0  0  0
   -0.8180   -0.2850    3.3490 C   0  0  0  0  0  0  0  0  0  0  0  0
   -2.1580    0.2560    3.4470 O   0  0  0  0  0  0  0  0  0  0  0  0
  7  8  1  0
  5  7  1  0
  5  6  1  6
  4  5  1  0
  2  1  1  0
  3  2  1  0
  4  3  1  0
M  END
$$$$
