
     RDKit          3D

  8  7  0  0  0  0  0  0  0  0999 V2000
    3.8920   -1.1820    2.7970 C   0  0  0  0  0  0  0  0  0  0  0  0
    3.0470   -0.0940    3.0130 O   0  0  0  0  0  0  0  0  0  0  0  0
    1.8240   -0.3350    3.7000 C   0  0  0  0  0  0  0  0  0  0  0  0
    0.5960    0.0770    2.8820 C   0  0  2  0  0  0  0  0  0  0  0  0
    0.6350    1.4160    2.3140 O   0  0  0  0  0  0  0  0  0  0  0  0
   -0.5440    0.0400    3.8950 C   0  0  0  0  0  0  0  0  0  0  0  0
   -1.8170   -0.1740    3.2600 O   0  0  0  0  0  0  0  0  0  0  0  0
   -2.7590    0.8030    3.3570 C   0  0  0  0  0  0  0  0  0  0  0  0
  2  1  1  0
  4  6  1  0
  6  7  1  0
  3  2  1  0
  3  4  1  0
  4  5  1  1
  7  8  1  0
M  END
$$$$
