
     RDKit          3D

 30 32  0  0  0  0  0  0  0  0999 V2000
  125.5690  155.4900  179.3600 C   0  0  0  0  0  0  0  0  0  0  0  0
  126.3120  155.3730  180.5630 O   0  0  0  0  0  0  0  0  0  0  0  0
  127.0910  154.2710  180.4810 C   0  0  0  0  0  0  0  0  0  0  0  0
  127.4340  153.6740  179.4740 O   0  0  0  0  0  0  0  0  0  0  0  0
  127.4430  153.8560  181.8260 C   0  0  0  0  0  0  0  0  0  0  0  0
  128.1700  152.6990  181.9460 C   0  0  0  0  0  0  0  0  0  0  0  0
  128.5110  152.2790  183.2030 C   0  0  0  0  0  0  0  0  0  0  0  0
  129.4180  150.8460  183.4580 Cl  0  0  0  0  0  0  0  0  0  0  0  0
  128.1240  153.0220  184.2770 C   0  0  0  0  0  0  0  0  0  0  0  0
  128.4660  152.6030  185.5320 O   0  0  0  0  0  0  0  0  0  0  0  0
  127.4130  154.1720  184.1250 C   0  0  0  0  0  0  0  0  0  0  0  0
  126.9620  155.0420  185.5860 S   0  0  1  0  0  0  0  0  0  0  0  0
  126.0070  156.0570  185.1960 O   0  0  0  0  0  0  0  0  0  0  0  0
  126.6000  154.0000  186.5230 O   0  0  0  0  0  0  0  0  0  0  0  0
  128.4270  155.7530  186.1140 N   0  0  0  0  0  0  0  0  0  0  0  0
  129.2320  156.4600  185.1740 C   0  0  0  0  0  0  0  0  0  0  0  0
  128.7160  157.3410  184.2630 C   0  0  0  0  0  0  0  0  0  0  0  0
  129.5650  157.9870  183.3970 C   0  0  0  0  0  0  0  0  0  0  0  0
  129.0660  158.8940  182.4110 C   0  0  0  0  0  0  0  0  0  0  0  0
  128.6060  160.1350  182.7650 C   0  0  0  0  0  0  0  0  0  0  0  0
  128.1280  160.9950  181.8110 C   0  0  0  0  0  0  0  0  0  0  0  0
  128.1070  160.6030  180.4980 C   0  0  0  0  0  0  0  0  0  0  0  0
  128.5510  159.3560  180.1380 C   0  0  0  0  0  0  0  0  0  0  0  0
  129.0330  158.5060  181.0980 C   0  0  0  0  0  0  0  0  0  0  0  0
  130.9100  157.7430  183.4670 C   0  0  0  0  0  0  0  0  0  0  0  0
  131.7490  158.3710  182.6390 F   0  0  0  0  0  0  0  0  0  0  0  0
  131.4450  156.8930  184.3870 C   0  0  0  0  0  0  0  0  0  0  0  0
  130.5820  156.2600  185.2310 C   0  0  0  0  0  0  0  0  0  0  0  0
  131.0900  155.4140  186.1310 F   0  0  0  0  0  0  0  0  0  0  0  0
  127.0360  154.6210  182.8900 C   0  0  0  0  0  0  0  0  0  0  0  0
  9  7  2  0
  7  6  1  0
  7  8  1  0
 20 21  2  0
 19 20  1  0
 21 22  1  0
 23 22  2  0
 24 23  1  0
 19 24  2  0
 16 17  2  0
 17 18  1  0
 30  5  1  0
 11 30  2  0
  5  3  1  0
  5  6  2  0
  3  4  2  0
  3  2  1  0
  2  1  1  0
 11  9  1  0
  9 10  1  0
 12 11  1  0
 16 28  1  0
 15 16  1  0
 28 27  2  0
 28 29  1  0
 27 25  1  0
 18 25  2  0
 25 26  1  0
 18 19  1  0
 12 15  1  1
 12 13  2  0
 12 14  2  0
M  END
$$$$
