
     RDKit          3D

 49 50  0  0  0  0  0  0  0  0999 V2000
   53.7274  110.9032   23.3596 C   0  0  0  0  0  0  0  0  0  0  0  0
   54.9026  111.6049   22.5378 C   0  0  1  0  0  0  0  0  0  0  0  0
   55.9700  110.7486   22.4553 O   0  0  0  0  0  0  0  0  0  0  0  0
   54.3821  112.0641   21.1556 C   0  0  2  0  0  0  0  0  0  0  0  0
   55.3262  112.9809   20.4879 N   0  0  0  0  0  0  0  0  0  0  0  0
   56.4738  112.5557   19.9765 C   0  0  0  0  0  0  0  0  0  0  0  0
   57.2168  111.7635   20.5854 O   0  0  0  0  0  0  0  0  0  0  0  0
   56.6728  112.8280   18.5001 C   0  0  2  0  0  0  0  0  0  0  0  0
   56.1669  111.7205   17.6540 C   0  0  0  0  0  0  0  0  0  0  0  0
   54.6493  111.7448   17.3327 C   0  0  0  0  0  0  0  0  0  0  0  0
   54.2081  111.6371   16.0354 C   0  0  0  0  0  0  0  0  0  0  0  0
   52.8364  111.5268   15.7459 C   0  0  0  0  0  0  0  0  0  0  0  0
   51.9477  111.5460   16.7695 C   0  0  0  0  0  0  0  0  0  0  0  0
   50.5941  111.5496   16.4988 O   0  0  0  0  0  0  0  0  0  0  0  0
   52.3667  111.6544   18.0724 C   0  0  0  0  0  0  0  0  0  0  0  0
   53.6907  111.7830   18.3524 C   0  0  0  0  0  0  0  0  0  0  0  0
   58.0829  113.0619   18.3590 N   0  0  0  0  0  0  0  0  0  0  0  0
   58.6561  113.0281   17.1535 C   0  0  0  0  0  0  0  0  0  0  0  0
   58.6984  112.0251   16.4722 O   0  0  0  0  0  0  0  0  0  0  0  0
   59.5152  114.2563   16.8110 C   0  0  1  0  0  0  0  0  0  0  0  0
   60.9260  113.8079   16.3419 C   0  0  0  0  0  0  0  0  0  0  0  0
   60.8285  112.6281   15.3894 C   0  0  0  0  0  0  0  0  0  0  0  0
   60.9326  111.4917   15.8504 O   0  0  0  0  0  0  0  0  0  0  0  0
   60.9346  112.8746   14.1406 O   0  0  0  0  0  0  0  0  0  0  0  0
   58.8746  115.0932   15.8620 N   0  0  0  0  0  0  0  0  0  0  0  0
   58.5378  116.3223   16.1344 C   0  0  0  0  0  0  0  0  0  0  0  0
   58.2765  116.6872   17.2912 O   0  0  0  0  0  0  0  0  0  0  0  0
   58.7357  117.3312   15.0033 C   0  0  2  0  0  0  0  0  0  0  0  0
   60.0412  117.0756   14.4105 N   0  0  0  0  0  0  0  0  0  0  0  0
   58.7341  118.7528   15.5886 C   0  0  0  0  0  0  0  0  0  0  0  0
   58.4152  119.7815   14.5303 C   0  0  0  0  0  0  0  0  0  0  0  0
   59.3468  120.6618   14.2271 O   0  0  0  0  0  0  0  0  0  0  0  0
   57.2577  119.8983   14.1256 O   0  0  0  0  0  0  0  0  0  0  0  0
   53.0352  112.7451   21.2556 C   0  0  0  0  0  0  0  0  0  0  0  0
   52.5086  113.1192   20.1673 O   0  0  0  0  0  0  0  0  0  0  0  0
   52.3411  112.6082   22.3520 N   0  0  0  0  0  0  0  0  0  0  0  0
   52.6909  111.8469   23.5517 C   0  0  0  0  0  0  0  0  0  0  0  0
   51.4797  110.9659   23.8198 C   0  0  0  0  0  0  0  0  0  0  0  0
   50.3468  111.7225   23.1816 C   0  0  0  0  0  0  0  0  0  0  0  0
   50.8684  112.7839   22.2698 C   0  0  1  0  0  0  0  0  0  0  0  0
   50.4655  114.1686   22.7274 C   0  0  0  0  0  0  0  0  0  0  0  0
   50.1048  115.0076   21.9125 O   0  0  0  0  0  0  0  0  0  0  0  0
   50.2286  114.3148   24.0445 N   0  0  0  0  0  0  0  0  0  0  0  0
   50.8369  115.3098   24.8440 C   0  0  2  0  0  0  0  0  0  0  0  0
   52.2532  115.6609   24.3213 C   0  0  0  0  0  0  0  0  0  0  0  0
   52.3255  116.9461   23.8069 O   0  0  0  0  0  0  0  0  0  0  0  0
   50.9982  114.9071   26.3217 C   0  0  0  0  0  0  0  0  0  0  0  0
   50.7497  115.7474   27.2078 O   0  0  0  0  0  0  0  0  0  0  0  0
   50.7509  113.7074   26.6427 O   0  0  0  0  0  0  0  0  0  0  0  0
 28 29  1  6
 28 26  1  0
 28 30  1  0
 26 27  2  0
 26 25  1  0
 30 31  1  0
 31 32  2  0
 31 33  1  0
 25 20  1  0
 20 18  1  0
 20 21  1  1
 18 19  2  0
 18 17  1  0
 21 22  1  0
 22 24  1  0
 22 23  2  0
 17  8  1  0
  8  6  1  0
  8  9  1  6
  6  7  2  0
  6  5  1  0
  9 10  1  0
 10 11  4  0
 10 16  4  0
 11 12  4  0
 16 15  4  0
 12 13  4  0
 15 13  4  0
 13 14  1  0
  4  5  1  1
  4 34  1  0
  4  2  1  0
 34 35  2  0
 34 36  1  0
  2  3  1  0
  2  1  1  6
 36 40  1  0
 36 37  1  0
 40 41  1  1
 40 39  1  0
 41 42  2  0
 41 43  1  0
 39 38  1  0
 38 37  1  0
 43 44  1  0
 44 47  1  0
 44 45  1  1
 47 49  1  0
 47 48  2  0
 45 46  1  0
M  CHG  1  29   1
M  END
$$$$
