
     RDKit          3D

 61 62  0  0  0  0  0  0  0  0999 V2000
   59.7804  110.4074   18.3203 C   0  0  0  0  0  0  0  0  0  0  0  0
   59.9160  111.5306   19.3248 C   0  0  2  0  0  0  0  0  0  0  0  0
   59.9939  112.8831   18.5878 C   0  0  0  0  0  0  0  0  0  0  0  0
   61.1387  111.3695   20.2287 C   0  0  0  0  0  0  0  0  0  0  0  0
   61.3517  112.4879   21.2328 C   0  0  1  0  0  0  0  0  0  0  0  0
   60.0466  112.8979   21.8045 N   0  0  0  0  0  0  0  0  0  0  0  0
   59.2196  112.1148   22.3880 C   0  0  0  0  0  0  0  0  0  0  0  0
   59.6578  111.4421   23.4249 O   0  0  0  0  0  0  0  0  0  0  0  0
   57.7591  112.2623   22.1242 C   0  0  2  0  0  0  0  0  0  0  0  0
   57.1804  110.9145   21.6907 C   0  0  0  0  0  0  0  0  0  0  0  0
   58.2571  109.8565   21.3250 C   0  0  0  0  0  0  0  0  0  0  0  0
   58.6856  109.8277   20.1924 O   0  0  0  0  0  0  0  0  0  0  0  0
   58.8010  109.2211   22.2939 O   0  0  0  0  0  0  0  0  0  0  0  0
   57.5524  113.2446   21.0899 N   0  0  0  0  0  0  0  0  0  0  0  0
   57.0773  112.9145   19.8597 C   0  0  0  0  0  0  0  0  0  0  0  0
   57.8070  112.9846   18.8613 O   0  0  0  0  0  0  0  0  0  0  0  0
   55.6071  112.7568   19.7163 C   0  0  2  0  0  0  0  0  0  0  0  0
   55.0090  113.8753   18.8377 C   0  0  0  0  0  0  0  0  0  0  0  0
   54.3935  113.3628   17.5641 C   0  0  0  0  0  0  0  0  0  0  0  0
   54.8405  112.2084   16.9741 C   0  0  0  0  0  0  0  0  0  0  0  0
   53.9498  111.2673   16.4497 C   0  0  0  0  0  0  0  0  0  0  0  0
   52.6347  111.5972   16.3155 C   0  0  0  0  0  0  0  0  0  0  0  0
   51.6953  110.6247   16.1522 O   0  0  0  0  0  0  0  0  0  0  0  0
   52.1869  112.8576   16.6241 C   0  0  0  0  0  0  0  0  0  0  0  0
   53.0901  113.7999   17.1687 C   0  0  0  0  0  0  0  0  0  0  0  0
   55.0064  112.7207   21.0498 N   0  0  0  0  0  0  0  0  0  0  0  0
   53.6633  112.6525   21.2053 C   0  0  0  0  0  0  0  0  0  0  0  0
   53.1644  112.0782   22.1851 O   0  0  0  0  0  0  0  0  0  0  0  0
   52.8157  112.8991   19.9754 C   0  0  2  0  0  0  0  0  0  0  0  0
   52.4216  111.5757   19.2820 C   0  0  0  0  0  0  0  0  0  0  0  0
   53.6531  111.2253   18.3896 C   0  0  0  0  0  0  0  0  0  0  0  0
   54.5891  112.4296   18.4062 C   0  0  0  0  0  0  0  0  0  0  0  0
   53.7212  113.5261   18.9444 N   0  0  0  0  0  0  0  0  0  0  0  0
   54.0520  114.7638   19.1161 C   0  0  0  0  0  0  0  0  0  0  0  0
   54.0709  115.2516   20.2667 O   0  0  0  0  0  0  0  0  0  0  0  0
   54.4123  115.6085   17.8999 C   0  0  1  0  0  0  0  0  0  0  0  0
   55.0398  116.9216   18.3516 C   0  0  0  0  0  0  0  0  0  0  0  0
   56.2262  116.6342   19.3288 C   0  0  0  0  0  0  0  0  0  0  0  0
   56.3220  115.4890   19.7986 O   0  0  0  0  0  0  0  0  0  0  0  0
   57.1596  117.4943   19.3570 O   0  0  0  0  0  0  0  0  0  0  0  0
   55.2399  114.8159   17.0551 N   0  0  0  0  0  0  0  0  0  0  0  0
   56.0525  115.4100   16.1176 C   0  0  0  0  0  0  0  0  0  0  0  0
   55.7979  115.3820   14.9050 O   0  0  0  0  0  0  0  0  0  0  0  0
   57.0710  116.4124   16.6364 C   0  0  1  0  0  0  0  0  0  0  0  0
   58.4125  116.2921   16.0519 N   0  0  0  0  0  0  0  0  0  0  0  0
   56.5514  117.8239   16.5481 C   0  0  0  0  0  0  0  0  0  0  0  0
   57.6785  118.8249   16.1745 C   0  0  0  0  0  0  0  0  0  0  0  0
   57.0524  120.2006   15.9129 C   0  0  0  0  0  0  0  0  0  0  0  0
   55.8382  120.2755   15.7859 O   0  0  0  0  0  0  0  0  0  0  0  0
   57.8808  121.1591   15.9105 O   0  0  0  0  0  0  0  0  0  0  0  0
   62.1686  112.0847   22.4238 C   0  0  0  0  0  0  0  0  0  0  0  0
   62.7271  110.9024   22.3656 O   0  0  0  0  0  0  0  0  0  0  0  0
   61.6022  112.4190   23.5980 N   0  0  0  0  0  0  0  0  0  0  0  0
   60.1975  112.5843   23.0081 C   0  0  2  0  0  0  0  0  0  0  0  0
   60.2115  111.6588   21.7611 C   0  0  0  0  0  0  0  0  0  0  0  0
   61.5799  111.1618   21.5305 C   0  0  0  0  0  0  0  0  0  0  0  0
   62.3539  111.8730   20.6802 N   0  0  0  0  0  0  0  0  0  0  0  0
   61.8313  109.9848   21.7093 O   0  0  0  0  0  0  0  0  0  0  0  0
   60.0723  114.0400   22.5242 C   0  0  0  0  0  0  0  0  0  0  0  0
   60.6981  114.9327   23.0957 O   0  0  0  0  0  0  0  0  0  0  0  0
   59.8724  114.1532   21.2855 O   0  0  0  0  0  0  0  0  0  0  0  0
 44 45  1  6
 44 42  1  0
 44 46  1  0
 42 43  2  0
 42 41  1  0
 46 47  1  0
 47 48  1  0
 48 49  2  0
 48 50  1  0
 41 36  1  0
 36 34  1  0
 36 37  1  6
 34 35  2  0
 34 33  1  0
 37 38  1  0
 38 40  1  0
 38 39  2  0
 33 29  1  0
 33 32  1  0
 29 27  1  1
 29 30  1  0
 27 28  2  0
 27 26  1  0
 30 31  1  0
 31 32  1  0
 26 17  1  0
 17 15  1  0
 17 18  1  6
 15 16  2  0
 15 14  1  0
 18 19  1  0
 19 20  4  0
 19 25  4  0
 20 21  4  0
 25 24  4  0
 21 22  4  0
 24 22  4  0
 22 23  1  0
 14  9  1  0
  9  7  1  0
  9 10  1  6
  7  8  2  0
  7  6  1  0
 10 11  1  0
 11 12  2  0
 11 13  1  0
  6  5  1  0
  5 51  1  0
  5  4  1  1
 51 52  2  0
 51 53  1  0
  4  2  1  0
  2  1  1  1
  2  3  1  0
 53 54  1  0
 54 59  1  0
 54 55  1  1
 59 61  1  0
 59 60  2  0
 55 56  1  0
 56 58  2  0
 56 57  1  0
M  CHG  1  45   1
M  END
$$$$
