
     RDKit          3D

 61 62  0  0  0  0  0  0  0  0999 V2000
   55.0510  109.3490   22.0880 C   0  0  0  0  0  0  0  0  0  0  0  0
   54.0240  110.3300   21.5190 C   0  0  1  0  0  0  0  0  0  0  0  0
   52.8920  109.5670   20.8610 C   0  0  0  0  0  0  0  0  0  0  0  0
   53.4450  111.2800   22.5730 C   0  0  0  0  0  0  0  0  0  0  0  0
   52.7260  112.4970   22.0050 C   0  0  2  0  0  0  0  0  0  0  0  0
   53.6850  113.5430   21.6630 N   0  0  0  0  0  0  0  0  0  0  0  0
   53.4660  114.3830   20.6550 C   0  0  0  0  0  0  0  0  0  0  0  0
   52.3720  114.4840   20.0920 O   0  0  0  0  0  0  0  0  0  0  0  0
   54.6170  115.2990   20.2810 C   0  0  2  0  0  0  0  0  0  0  0  0
   54.2590  116.7500   20.6160 C   0  0  0  0  0  0  0  0  0  0  0  0
   54.0640  116.9970   22.1140 C   0  0  0  0  0  0  0  0  0  0  0  0
   53.1440  116.3940   22.7110 O   0  0  0  0  0  0  0  0  0  0  0  0
   54.8130  117.8180   22.6920 O   0  0  0  0  0  0  0  0  0  0  0  0
   54.8950  115.1800   18.8570 N   0  0  0  0  0  0  0  0  0  0  0  0
   55.6760  114.2210   18.3510 C   0  0  0  0  0  0  0  0  0  0  0  0
   56.2350  113.3620   19.0440 O   0  0  0  0  0  0  0  0  0  0  0  0
   55.8520  114.2250   16.8350 C   0  0  2  0  0  0  0  0  0  0  0  0
   55.2340  112.9680   16.2100 C   0  0  0  0  0  0  0  0  0  0  0  0
   53.7580  112.7840   16.5260 C   0  0  0  0  0  0  0  0  0  0  0  0
   52.8230  113.7140   16.1150 C   0  0  0  0  0  0  0  0  0  0  0  0
   51.4890  113.5590   16.4090 C   0  0  0  0  0  0  0  0  0  0  0  0
   51.0640  112.4770   17.1290 C   0  0  0  0  0  0  0  0  0  0  0  0
   49.7280  112.3420   17.4110 O   0  0  0  0  0  0  0  0  0  0  0  0
   51.9600  111.5340   17.5590 C   0  0  0  0  0  0  0  0  0  0  0  0
   53.3060  111.6920   17.2570 C   0  0  0  0  0  0  0  0  0  0  0  0
   57.2760  114.3180   16.5370 N   0  0  0  0  0  0  0  0  0  0  0  0
   57.8960  115.4760   16.3040 C   0  0  0  0  0  0  0  0  0  0  0  0
   57.3160  116.5670   16.2530 O   0  0  0  0  0  0  0  0  0  0  0  0
   59.3930  115.4040   16.0930 C   0  0  2  0  0  0  0  0  0  0  0  0
   60.1570  115.2400   17.4110 C   0  0  0  0  0  0  0  0  0  0  0  0
   60.5190  116.6740   17.8280 C   0  0  0  0  0  0  0  0  0  0  0  0
   60.2460  117.5970   16.6610 C   0  0  0  0  0  0  0  0  0  0  0  0
   59.9120  116.6640   15.5770 N   0  0  0  0  0  0  0  0  0  0  0  0
   60.1380  116.7910   14.3060 C   0  0  0  0  0  0  0  0  0  0  0  0
   59.7170  115.9630   13.4900 O   0  0  0  0  0  0  0  0  0  0  0  0
   60.8980  118.0140   13.8370 C   0  0  2  0  0  0  0  0  0  0  0  0
   60.2190  118.5860   12.5950 C   0  0  0  0  0  0  0  0  0  0  0  0
   58.7820  118.9980   12.8570 C   0  0  0  0  0  0  0  0  0  0  0  0
   58.0160  119.1290   11.8740 O   0  0  0  0  0  0  0  0  0  0  0  0
   58.4190  119.1790   14.0430 O   0  0  0  0  0  0  0  0  0  0  0  0
   62.2720  117.6120   13.5700 N   0  0  0  0  0  0  0  0  0  0  0  0
   63.2400  117.6980   14.4890 C   0  0  0  0  0  0  0  0  0  0  0  0
   63.0800  118.2270   15.5910 O   0  0  0  0  0  0  0  0  0  0  0  0
   64.5870  117.0770   14.1040 C   0  0  1  0  0  0  0  0  0  0  0  0
   65.6420  118.0800   13.9540 N   0  0  0  0  0  0  0  0  0  0  0  0
   64.9820  116.0210   15.1460 C   0  0  0  0  0  0  0  0  0  0  0  0
   63.8740  115.0380   15.4270 C   0  0  0  0  0  0  0  0  0  0  0  0
   63.7080  114.0480   14.2910 C   0  0  0  0  0  0  0  0  0  0  0  0
   62.7210  114.1680   13.5370 O   0  0  0  0  0  0  0  0  0  0  0  0
   64.6010  113.1950   14.1120 O   0  0  0  0  0  0  0  0  0  0  0  0
   51.7100  113.0870   22.9820 C   0  0  0  0  0  0  0  0  0  0  0  0
   51.6730  112.7820   24.1760 O   0  0  0  0  0  0  0  0  0  0  0  0
   50.8820  113.9750   22.4320 N   0  0  0  0  0  0  0  0  0  0  0  0
   49.8480  114.6460   23.2000 C   0  0  1  0  0  0  0  0  0  0  0  0
   50.4510  115.7780   24.0140 C   0  0  0  0  0  0  0  0  0  0  0  0
   49.9110  115.8150   25.4030 C   0  0  0  0  0  0  0  0  0  0  0  0
   50.7100  115.3570   26.3630 N   0  0  0  0  0  0  0  0  0  0  0  0
   48.7670  116.2250   25.6180 O   0  0  0  0  0  0  0  0  0  0  0  0
   48.7380  115.1910   22.3130 C   0  0  0  0  0  0  0  0  0  0  0  0
   47.6770  115.5720   22.8040 O   0  0  0  0  0  0  0  0  0  0  0  0
   48.8880  115.2570   21.0940 O   0  0  0  0  0  0  0  0  0  0  0  0
 44 45  1  1
 44 42  1  0
 44 46  1  0
 42 43  2  0
 42 41  1  0
 46 47  1  0
 47 48  1  0
 48 49  2  0
 48 50  1  0
 41 36  1  0
 36 34  1  0
 36 37  1  6
 34 35  2  0
 34 33  1  0
 37 38  1  0
 38 40  1  0
 38 39  2  0
 33 29  1  0
 33 32  1  0
 29 27  1  1
 29 30  1  0
 27 28  2  0
 27 26  1  0
 30 31  1  0
 31 32  1  0
 26 17  1  0
 17 15  1  0
 17 18  1  1
 15 16  2  0
 15 14  1  0
 18 19  1  0
 19 20  2  0
 19 25  1  0
 20 21  1  0
 25 24  2  0
 21 22  2  0
 24 22  1  0
 22 23  1  0
 14  9  1  0
  9  7  1  0
  9 10  1  6
  7  8  2  0
  7  6  1  0
 10 11  1  0
 11 12  2  0
 11 13  1  0
  6  5  1  0
  5 51  1  0
  5  4  1  1
 51 52  2  0
 51 53  1  0
  4  2  1  0
  2  1  1  1
  2  3  1  0
 53 54  1  0
 54 59  1  0
 54 55  1  6
 59 61  1  0
 59 60  2  0
 55 56  1  0
 56 58  2  0
 56 57  1  0
M  CHG  1  45   1
M  END
$$$$
