
     RDKit          3D

 27 32  0  0  0  0  0  0  0  0999 V2000
    9.8889   61.4734  129.4497 C   0  0  0  0  0  0  0  0  0  0  0  0
   10.8863   61.3727  128.2795 C   0  0  1  0  0  0  0  0  0  0  0  0
   12.2247   62.0235  128.8290 C   0  0  0  0  0  0  0  0  0  0  0  0
   11.0020   59.9099  127.7343 C   0  0  0  0  0  0  0  0  0  0  0  0
   11.5508   58.7862  128.2873 N   0  0  0  0  0  0  0  0  0  0  0  0
   11.5978   57.6768  127.3708 C   0  0  0  0  0  0  0  0  0  0  0  0
   12.2983   56.4305  127.3516 C   0  0  0  0  0  0  0  0  0  0  0  0
   12.6901   55.9553  126.1408 C   0  0  0  0  0  0  0  0  0  0  0  0
   13.4464   54.2119  126.0318 Br  0  0  0  0  0  0  0  0  0  0  0  0
   12.4409   56.6437  124.9387 C   0  0  0  0  0  0  0  0  0  0  0  0
   13.6337   56.4388  123.6797 Cl  0  0  0  0  0  0  0  0  0  0  0  0
   11.5234   57.6384  124.9275 C   0  0  0  0  0  0  0  0  0  0  0  0
   11.1067   58.2293  126.1224 C   0  0  0  0  0  0  0  0  0  0  0  0
   10.5368   59.5010  126.5207 C   0  0  0  0  0  0  0  0  0  0  0  0
    9.8834   60.4308  125.5930 C   0  0  0  0  0  0  0  0  0  0  0  0
   10.4909   61.7824  125.6578 C   0  0  2  0  0  0  0  0  0  0  0  0
   11.9740   61.9502  125.0722 C   0  0  0  0  0  0  0  0  0  0  0  0
   12.4964   63.2884  125.5659 N   0  0  1  0  0  4  0  0  0  0  0  0
   13.1884   64.0440  124.5151 C   0  0  0  0  0  0  0  0  0  0  0  0
   13.0545   65.5343  124.9915 C   0  0  0  0  0  0  0  0  0  0  0  0
   11.9279   65.5658  126.0146 C   0  0  0  0  0  0  0  0  0  0  0  0
   11.3643   64.1777  125.9950 C   0  0  2  0  0  0  0  0  0  0  0  0
   10.7737   63.7114  127.2861 C   0  0  0  0  0  0  0  0  0  0  0  0
   10.2773   62.2712  127.1509 C   0  0  2  0  0  0  0  0  0  0  0  0
   10.2592   64.0833  124.8789 C   0  0  0  0  0  0  0  0  0  0  0  0
    9.5406   64.9788  124.6023 O   0  0  0  0  0  0  0  0  0  0  0  0
    9.8086   62.7305  124.7720 N   0  0  0  0  0  0  0  0  0  0  0  0
  2  1  1  6
  2  3  1  0
 24  2  1  0
  2  4  1  0
 24 23  1  1
 16 24  1  0
 23 22  1  0
 16 15  1  6
 16 27  1  0
 16 17  1  0
 14 15  1  0
 27 25  1  0
 25 22  1  0
 25 26  2  0
 22 21  1  6
 22 18  1  0
 21 20  1  0
 19 20  1  0
 18 19  1  1
  7  8  4  0
  8 10  4  0
  8  9  1  0
  6  7  4  0
 13  6  4  0
  6  5  4  0
 13 12  4  0
 13 14  4  0
 12 10  4  0
 10 11  1  0
 14  4  4  0
  4  5  4  0
 17 18  1  0
M  CHG  1  18   1
M  END
$$$$
