
     RDKit          3D

 60 60  0  0  0  0  0  0  0  0999 V2000
   35.2069   56.7150   26.1504 C   0  0  0  0  0  0  0  0  0  0  0  0
   36.4778   57.4900   26.3148 C   0  0  1  0  0  0  0  0  0  0  0  0
   37.6219   56.5331   26.7049 C   0  0  0  0  0  0  0  0  0  0  0  0
   36.7335   58.2518   25.0386 C   0  0  0  0  0  0  0  0  0  0  0  0
   35.5054   58.8038   24.3033 C   0  0  1  0  0  0  0  0  0  0  0  0
   34.8399   59.7442   25.1521 N   0  0  0  0  0  0  0  0  0  0  0  0
   35.5134   60.7343   25.8328 C   0  0  0  0  0  0  0  0  0  0  0  0
   35.4969   61.9027   25.4294 O   0  0  0  0  0  0  0  0  0  0  0  0
   36.0533   60.3231   27.1930 C   0  0  1  0  0  0  0  0  0  0  0  0
   37.4582   60.6892   27.3715 C   0  0  0  0  0  0  0  0  0  0  0  0
   37.6597   62.1056   27.4360 O   0  0  0  0  0  0  0  0  0  0  0  0
   35.2483   60.9667   28.2665 N   0  0  0  0  0  0  0  0  0  0  0  0
   35.4315   62.1615   28.7224 C   0  0  0  0  0  0  0  0  0  0  0  0
   35.8933   63.0606   28.0512 O   0  0  0  0  0  0  0  0  0  0  0  0
   35.3579   62.2828   30.2571 C   0  0  2  0  0  0  0  0  0  0  0  0
   36.6462   61.6109   30.8563 C   0  0  0  0  0  0  0  0  0  0  0  0
   36.1278   60.2764   31.4172 C   0  0  0  0  0  0  0  0  0  0  0  0
   34.6169   60.5480   31.7538 C   0  0  0  0  0  0  0  0  0  0  0  0
   34.2346   61.5312   30.7850 N   0  0  0  0  0  0  0  0  0  0  0  0
   32.9835   62.0355   30.5346 C   0  0  0  0  0  0  0  0  0  0  0  0
   32.8785   63.2349   30.2668 O   0  0  0  0  0  0  0  0  0  0  0  0
   31.8300   61.3053   31.1471 C   0  0  2  0  0  0  0  0  0  0  0  0
   31.7363   59.8895   30.5788 C   0  0  0  0  0  0  0  0  0  0  0  0
   30.5221   61.9866   30.7629 N   0  0  0  0  0  0  0  0  0  0  0  0
   29.8042   62.7218   31.6231 C   0  0  0  0  0  0  0  0  0  0  0  0
   30.3236   63.1599   32.6343 O   0  0  0  0  0  0  0  0  0  0  0  0
   28.3079   62.5851   31.4882 C   0  0  1  0  0  0  0  0  0  0  0  0
   27.5864   63.3204   32.5255 N   0  0  0  0  0  0  0  0  0  0  0  0
   27.3888   62.8462   33.7782 C   0  0  0  0  0  0  0  0  0  0  0  0
   27.4180   61.6188   34.0044 O   0  0  0  0  0  0  0  0  0  0  0  0
   27.0462   63.8959   34.8185 C   0  0  1  0  0  0  0  0  0  0  0  0
   25.6819   63.7437   35.3530 N   0  0  0  0  0  0  0  0  0  0  0  0
   28.1610   63.8148   35.9403 C   0  0  2  0  0  0  0  0  0  0  0  0
   29.1273   65.0111   35.8005 C   0  0  0  0  0  0  0  0  0  0  0  0
   28.8855   62.6285   35.7942 O   0  0  0  0  0  0  0  0  0  0  0  0
   27.8454   62.9652   30.0617 C   0  0  1  0  0  0  0  0  0  0  0  0
   27.1678   64.2840   30.0315 C   0  0  0  0  0  0  0  0  0  0  0  0
   28.9405   62.9059   29.2238 O   0  0  0  0  0  0  0  0  0  0  0  0
   35.9091   59.4926   22.9831 C   0  0  0  0  0  0  0  0  0  0  0  0
   35.1636   59.3339   21.9871 O   0  0  0  0  0  0  0  0  0  0  0  0
   37.1690   59.8632   22.8616 N   0  0  0  0  0  0  0  0  0  0  0  0
   38.2364   58.9620   22.3891 C   0  0  2  0  0  0  0  0  0  0  0  0
   39.5060   59.7848   22.0737 C   0  0  0  0  0  0  0  0  0  0  0  0
   39.9692   59.5418   20.7248 O   0  0  0  0  0  0  0  0  0  0  0  0
   37.7542   58.2054   21.1342 C   0  0  0  0  0  0  0  0  0  0  0  0
   37.3381   56.9987   21.2168 O   0  0  0  0  0  0  0  0  0  0  0  0
   37.8662   58.8783   19.9944 N   0  0  0  0  0  0  0  0  0  0  0  0
   37.7367   58.2372   18.6884 C   0  0  0  0  0  0  0  0  0  0  0  0
   37.6326   56.6771   18.7965 C   0  0  0  0  0  0  0  0  0  0  0  0
   38.3615   56.1709   19.6361 O   0  0  0  0  0  0  0  0  0  0  0  0
   36.4887   56.1461   18.5235 N   0  0  0  0  0  0  0  0  0  0  0  0
   36.3454   55.1359   17.4443 C   0  0  1  0  0  0  0  0  0  0  0  0
   34.9691   55.2680   16.8502 C   0  0  0  0  0  0  0  0  0  0  0  0
   34.1495   56.3773   17.4594 C   0  0  0  0  0  0  0  0  0  0  0  0
   32.6374   56.2794   17.2986 C   0  0  0  0  0  0  0  0  0  0  0  0
   32.0686   55.5017   18.4114 C   0  0  0  0  0  0  0  0  0  0  0  0
   31.0854   56.1606   19.2051 N   0  0  0  0  0  0  0  0  0  0  0  0
   37.4572   55.3309   16.3728 C   0  0  0  0  0  0  0  0  0  0  0  0
   38.6403   55.2666   16.8403 O   0  0  0  0  0  0  0  0  0  0  0  0
   37.2248   55.3207   15.1362 O   0  0  0  0  0  0  0  0  0  0  0  0
 31 32  1  1
 31 29  1  0
 31 33  1  0
 29 30  2  0
 29 28  1  0
 33 35  1  0
 33 34  1  1
 27 28  1  1
 27 25  1  0
 27 36  1  0
 25 26  2  0
 25 24  1  0
 36 38  1  0
 36 37  1  1
 24 22  1  0
 22 20  1  0
 22 23  1  6
 20 21  2  0
 20 19  1  0
 19 15  1  0
 19 18  1  0
 15 13  1  6
 15 16  1  0
 13 14  2  0
 13 12  1  0
 16 17  1  0
 17 18  1  0
 12  9  1  0
  9  7  1  0
  9 10  1  1
  7  8  2  0
  7  6  1  0
 10 11  1  0
  6  5  1  0
  5 39  1  0
  5  4  1  6
 39 40  2  0
 39 41  1  0
  4  2  1  0
  2  1  1  6
  2  3  1  0
 41 42  1  0
 42 45  1  0
 42 43  1  1
 45 46  2  0
 45 47  1  0
 43 44  1  0
 47 48  1  0
 48 49  1  0
 49 50  2  0
 49 51  1  0
 51 52  1  0
 52 58  1  0
 52 53  1  6
 58 59  2  0
 58 60  1  0
 53 54  1  0
 54 55  1  0
 55 56  1  0
 56 57  1  0
M  CHG  2  32   1  57   1
M  END
$$$$
