
     RDKit          3D

 60 60  0  0  0  0  0  0  0  0999 V2000
   34.1130   54.9050   25.0040 C   0  0  0  0  0  0  0  0  0  0  0  0
   34.5120   56.2530   25.5710 C   0  0  1  0  0  0  0  0  0  0  0  0
   35.0330   56.1010   26.9830 C   0  0  0  0  0  0  0  0  0  0  0  0
   35.5110   56.9470   24.6360 C   0  0  0  0  0  0  0  0  0  0  0  0
   36.2390   58.1640   25.2050 C   0  0  2  0  0  0  0  0  0  0  0  0
   35.2610   59.1740   25.6440 N   0  0  0  0  0  0  0  0  0  0  0  0
   35.6310   60.2160   26.3900 C   0  0  0  0  0  0  0  0  0  0  0  0
   36.7370   60.3040   26.9450 O   0  0  0  0  0  0  0  0  0  0  0  0
   34.5960   61.3610   26.5510 C   0  0  2  0  0  0  0  0  0  0  0  0
   34.8880   62.5410   25.7040 C   0  0  0  0  0  0  0  0  0  0  0  0
   35.1020   62.1670   24.3630 O   0  0  0  0  0  0  0  0  0  0  0  0
   34.5590   61.8020   27.9540 N   0  0  0  0  0  0  0  0  0  0  0  0
   34.2350   61.0600   28.9760 C   0  0  0  0  0  0  0  0  0  0  0  0
   33.8380   59.9230   28.8630 O   0  0  0  0  0  0  0  0  0  0  0  0
   34.3660   61.7600   30.3450 C   0  0  2  0  0  0  0  0  0  0  0  0
   35.6640   61.2890   31.0630 C   0  0  0  0  0  0  0  0  0  0  0  0
   35.2030   60.9280   32.4530 C   0  0  0  0  0  0  0  0  0  0  0  0
   33.7380   60.5160   32.3170 C   0  0  0  0  0  0  0  0  0  0  0  0
   33.2740   61.3520   31.2080 N   0  0  0  0  0  0  0  0  0  0  0  0
   31.9980   61.5400   30.7760 C   0  0  0  0  0  0  0  0  0  0  0  0
   31.7600   62.2030   29.7710 O   0  0  0  0  0  0  0  0  0  0  0  0
   30.8780   60.7720   31.4510 C   0  0  2  0  0  0  0  0  0  0  0  0
   30.7270   59.4130   30.8130 C   0  0  0  0  0  0  0  0  0  0  0  0
   29.5920   61.5100   31.3080 N   0  0  0  0  0  0  0  0  0  0  0  0
   29.2400   62.5430   32.0410 C   0  0  0  0  0  0  0  0  0  0  0  0
   29.9470   62.9910   32.9140 O   0  0  0  0  0  0  0  0  0  0  0  0
   27.8390   63.1290   31.7710 C   0  0  1  0  0  0  0  0  0  0  0  0
   27.2970   63.8660   32.9390 N   0  0  0  0  0  0  0  0  0  0  0  0
   26.8160   63.2440   34.0050 C   0  0  0  0  0  0  0  0  0  0  0  0
   26.7980   61.9810   34.1760 O   0  0  0  0  0  0  0  0  0  0  0  0
   26.2520   64.1700   35.0830 C   0  0  1  0  0  0  0  0  0  0  0  0
   25.1500   63.5210   35.8050 N   0  0  0  0  0  0  0  0  0  0  0  0
   27.4290   64.5900   35.9970 C   0  0  1  0  0  0  0  0  0  0  0  0
   26.9910   65.6320   37.0200 C   0  0  0  0  0  0  0  0  0  0  0  0
   27.9720   63.4290   36.6090 O   0  0  0  0  0  0  0  0  0  0  0  0
   27.8510   63.9620   30.4900 C   0  0  1  0  0  0  0  0  0  0  0  0
   26.4640   64.2820   29.9930 C   0  0  0  0  0  0  0  0  0  0  0  0
   28.5150   65.1820   30.7680 O   0  0  0  0  0  0  0  0  0  0  0  0
   37.1580   58.8050   24.1520 C   0  0  0  0  0  0  0  0  0  0  0  0
   36.8240   59.7960   23.5530 O   0  0  0  0  0  0  0  0  0  0  0  0
   38.3300   58.2290   23.9500 N   0  0  0  0  0  0  0  0  0  0  0  0
   39.2330   58.5960   22.8410 C   0  0  1  0  0  0  0  0  0  0  0  0
   40.6000   57.9370   23.0300 C   0  0  0  0  0  0  0  0  0  0  0  0
   40.4700   56.5110   23.1210 O   0  0  0  0  0  0  0  0  0  0  0  0
   38.5960   58.1620   21.5030 C   0  0  0  0  0  0  0  0  0  0  0  0
   37.5460   57.4180   21.4700 O   0  0  0  0  0  0  0  0  0  0  0  0
   39.2040   58.6050   20.4090 N   0  0  0  0  0  0  0  0  0  0  0  0
   38.6190   58.4650   19.0770 C   0  0  0  0  0  0  0  0  0  0  0  0
   38.3210   57.0200   18.7180 C   0  0  0  0  0  0  0  0  0  0  0  0
   39.0080   56.1620   19.1040 O   0  0  0  0  0  0  0  0  0  0  0  0
   37.2840   56.8080   17.9260 N   0  0  0  0  0  0  0  0  0  0  0  0
   37.0240   55.5070   17.3060 C   0  0  1  0  0  0  0  0  0  0  0  0
   35.5870   55.4820   16.7900 C   0  0  0  0  0  0  0  0  0  0  0  0
   34.5630   55.5750   17.8910 C   0  0  0  0  0  0  0  0  0  0  0  0
   33.1560   55.8140   17.4200 C   0  0  0  0  0  0  0  0  0  0  0  0
   32.2100   55.4840   18.5380 C   0  0  0  0  0  0  0  0  0  0  0  0
   30.8540   56.0580   18.3560 N   0  0  0  0  0  0  0  0  0  0  0  0
   38.0510   55.1910   16.1960 C   0  0  0  0  0  0  0  0  0  0  0  0
   38.0140   53.9940   15.7670 O   0  0  0  0  0  0  0  0  0  0  0  0
   38.8740   56.0730   15.7440 O   0  0  0  0  0  0  0  0  0  0  0  0
 31 32  1  1
 31 29  1  0
 31 33  1  0
 29 30  2  0
 29 28  1  0
 33 35  1  0
 33 34  1  1
 27 28  1  1
 27 25  1  0
 27 36  1  0
 25 26  2  0
 25 24  1  0
 36 38  1  0
 36 37  1  1
 24 22  1  0
 22 20  1  0
 22 23  1  6
 20 21  2  0
 20 19  1  0
 19 15  1  0
 19 18  1  0
 15 13  1  6
 15 16  1  0
 13 14  2  0
 13 12  1  0
 16 17  1  0
 17 18  1  0
 12  9  1  0
  9  7  1  0
  9 10  1  6
  7  8  2  0
  7  6  1  0
 10 11  1  0
  6  5  1  0
  5 39  1  0
  5  4  1  6
 39 40  2  0
 39 41  1  0
  4  2  1  0
  2  1  1  6
  2  3  1  0
 41 42  1  0
 42 45  1  0
 42 43  1  1
 45 46  2  0
 45 47  1  0
 43 44  1  0
 47 48  1  0
 48 49  1  0
 49 50  2  0
 49 51  1  0
 51 52  1  0
 52 58  1  0
 52 53  1  6
 58 59  2  0
 58 60  1  0
 53 54  1  0
 54 55  1  0
 55 56  1  0
 56 57  1  0
M  CHG  2  32   1  57   1
M  END
$$$$
