
     RDKit          3D

 65 66  0  0  0  0  0  0  0  0999 V2000
   65.8900   -2.2760   25.4510 C   0  0  0  0  0  0  0  0  0  0  0  0
   67.1800   -1.5290   25.7480 C   0  0  1  0  0  0  0  0  0  0  0  0
   67.5330   -1.6650   27.2210 C   0  0  0  0  0  0  0  0  0  0  0  0
   68.2880   -2.0140   24.8090 C   0  0  0  0  0  0  0  0  0  0  0  0
   69.7170   -2.0940   25.3550 C   0  0  2  0  0  0  0  0  0  0  0  0
   70.2090   -0.7940   25.8620 N   0  0  0  0  0  0  0  0  0  0  0  0
   70.9830   -0.7100   26.9460 C   0  0  0  0  0  0  0  0  0  0  0  0
   71.0940   -1.6160   27.8360 O   0  0  0  0  0  0  0  0  0  0  0  0
   71.7930    0.5980   27.0180 C   0  0  2  0  0  0  0  0  0  0  0  0
   73.1890    0.3420   26.4380 C   0  0  0  0  0  0  0  0  0  0  0  0
   73.9460   -0.8150   27.0640 C   0  0  0  0  0  0  0  0  0  0  0  0
   74.7670   -0.6200   28.1690 C   0  0  0  0  0  0  0  0  0  0  0  0
   75.4650   -1.6780   28.7340 C   0  0  0  0  0  0  0  0  0  0  0  0
   75.3580   -2.9440   28.2030 C   0  0  0  0  0  0  0  0  0  0  0  0
   74.5600   -3.1530   27.1020 C   0  0  0  0  0  0  0  0  0  0  0  0
   73.8600   -2.0980   26.5330 C   0  0  0  0  0  0  0  0  0  0  0  0
   71.8980    1.1380   28.4030 N   0  0  0  0  0  0  0  0  0  0  0  0
   70.9900    0.9970   29.3680 C   0  0  0  0  0  0  0  0  0  0  0  0
   69.8590    0.6510   29.2240 O   0  0  0  0  0  0  0  0  0  0  0  0
   71.4230    1.4370   30.7720 C   0  0  2  0  0  0  0  0  0  0  0  0
   71.5890    0.2160   31.6830 C   0  0  0  0  0  0  0  0  0  0  0  0
   70.3030    0.1300   32.4900 C   0  0  0  0  0  0  0  0  0  0  0  0
   69.7530    1.5350   32.5650 C   0  0  0  0  0  0  0  0  0  0  0  0
   70.3810    2.2180   31.4230 N   0  0  0  0  0  0  0  0  0  0  0  0
   70.0410    3.4260   30.9520 C   0  0  0  0  0  0  0  0  0  0  0  0
   70.7060    4.0020   30.0880 O   0  0  0  0  0  0  0  0  0  0  0  0
   68.8180    4.0700   31.5680 C   0  0  2  0  0  0  0  0  0  0  0  0
   67.5490    3.5870   30.9140 C   0  0  0  0  0  0  0  0  0  0  0  0
   68.9860    5.5150   31.3880 N   0  0  0  0  0  0  0  0  0  0  0  0
   69.6070    6.2870   32.2550 C   0  0  0  0  0  0  0  0  0  0  0  0
   70.1180    5.8960   33.3460 O   0  0  0  0  0  0  0  0  0  0  0  0
   69.5700    7.7640   31.8730 C   0  0  1  0  0  0  0  0  0  0  0  0
   69.8100    8.5920   33.0610 N   0  0  0  0  0  0  0  0  0  0  0  0
   69.0120    8.6200   34.1040 C   0  0  0  0  0  0  0  0  0  0  0  0
   67.9200    8.0130   34.2000 O   0  0  0  0  0  0  0  0  0  0  0  0
   69.5270    9.4800   35.2520 C   0  0  1  0  0  0  0  0  0  0  0  0
   68.3780   10.0350   36.0470 N   0  0  0  0  0  0  0  0  0  0  0  0
   70.4930    8.6230   36.0850 C   0  0  1  0  0  0  0  0  0  0  0  0
   71.4160    9.4420   36.9570 C   0  0  0  0  0  0  0  0  0  0  0  0
   69.7060    7.7990   36.9370 O   0  0  0  0  0  0  0  0  0  0  0  0
   70.5580    8.1020   30.7610 C   0  0  1  0  0  0  0  0  0  0  0  0
   70.1870    9.4070   30.1030 C   0  0  0  0  0  0  0  0  0  0  0  0
   71.8740    8.2060   31.3030 O   0  0  0  0  0  0  0  0  0  0  0  0
   70.6960   -2.5310   24.2580 C   0  0  0  0  0  0  0  0  0  0  0  0
   71.3100   -1.6710   23.5960 O   0  0  0  0  0  0  0  0  0  0  0  0
   70.8450   -3.8340   24.0670 N   0  0  0  0  0  0  0  0  0  0  0  0
   71.6070   -4.3780   22.9160 C   0  0  1  0  0  0  0  0  0  0  0  0
   71.7680   -5.8690   22.9990 C   0  0  0  0  0  0  0  0  0  0  0  0
   70.5000   -6.4970   23.0280 O   0  0  0  0  0  0  0  0  0  0  0  0
   70.9290   -3.9830   21.6050 C   0  0  0  0  0  0  0  0  0  0  0  0
   69.7400   -3.5380   21.5970 O   0  0  0  0  0  0  0  0  0  0  0  0
   71.6770   -4.1830   20.5310 N   0  0  0  0  0  0  0  0  0  0  0  0
   71.2930   -3.7540   19.1820 C   0  0  0  0  0  0  0  0  0  0  0  0
   69.9560   -4.3230   18.7820 C   0  0  0  0  0  0  0  0  0  0  0  0
   69.5200   -5.3390   19.3440 O   0  0  0  0  0  0  0  0  0  0  0  0
   69.2930   -3.6240   17.8760 N   0  0  0  0  0  0  0  0  0  0  0  0
   67.9460   -4.0240   17.3950 C   0  0  1  0  0  0  0  0  0  0  0  0
   67.1970   -2.7980   16.8760 C   0  0  0  0  0  0  0  0  0  0  0  0
   66.7910   -1.8260   17.9610 C   0  0  0  0  0  0  0  0  0  0  0  0
   66.1630   -0.5840   17.4160 C   0  0  0  0  0  0  0  0  0  0  0  0
   65.3740    0.1270   18.4910 C   0  0  0  0  0  0  0  0  0  0  0  0
   65.6520    1.5780   18.5020 N   0  0  0  0  0  0  0  0  0  0  0  0
   68.1200   -5.0780   16.2950 C   0  0  0  0  0  0  0  0  0  0  0  0
   69.2610   -5.1610   15.7800 O   0  0  0  0  0  0  0  0  0  0  0  0
   67.1510   -5.7920   15.9400 O   0  0  0  0  0  0  0  0  0  0  0  0
 36 37  1  1
 36 34  1  0
 36 38  1  0
 34 35  2  0
 34 33  1  0
 38 40  1  0
 38 39  1  1
 32 33  1  1
 32 30  1  0
 32 41  1  0
 30 31  2  0
 30 29  1  0
 41 43  1  0
 41 42  1  1
 29 27  1  0
 27 25  1  0
 27 28  1  6
 25 26  2  0
 25 24  1  0
 24 20  1  0
 24 23  1  0
 20 18  1  6
 20 21  1  0
 18 19  2  0
 18 17  1  0
 21 22  1  0
 22 23  1  0
 17  9  1  0
  9  7  1  0
  9 10  1  1
  7  8  2  0
  7  6  1  0
 10 11  1  0
 11 12  2  0
 11 16  1  0
 12 13  1  0
 16 15  2  0
 13 14  2  0
 15 14  1  0
  6  5  1  0
  5 44  1  0
  5  4  1  6
 44 45  2  0
 44 46  1  0
  4  2  1  0
  2  1  1  1
  2  3  1  0
 46 47  1  0
 47 50  1  0
 47 48  1  1
 50 51  2  0
 50 52  1  0
 48 49  1  0
 52 53  1  0
 53 54  1  0
 54 55  2  0
 54 56  1  0
 56 57  1  0
 57 63  1  0
 57 58  1  6
 63 65  1  0
 63 64  2  0
 58 59  1  0
 59 60  1  0
 60 61  1  0
 61 62  1  0
M  CHG  2  37   1  62   1
M  END
$$$$
