
     RDKit          3D

 31 36  0  0  0  0  0  0  0  0999 V2000
   29.7200  102.8090    5.6650 N   0  0  0  0  0  0  0  0  0  0  0  0
   30.3480  103.5160    4.7240 C   0  0  0  0  0  0  0  0  0  0  0  0
   30.1650  104.8540    4.6340 N   0  0  0  0  0  0  0  0  0  0  0  0
   30.8400  105.5920    3.6380 C   0  0  0  0  0  0  0  0  0  0  0  0
   31.6880  104.9240    2.7650 C   0  0  0  0  0  0  0  0  0  0  0  0
   32.3830  105.5930    1.7620 C   0  0  0  0  0  0  0  0  0  0  0  0
   33.2190  104.8690    0.9050 C   0  0  0  0  0  0  0  0  0  0  0  0
   33.9190  105.5420   -0.0910 C   0  0  0  0  0  0  0  0  0  0  0  0
   35.2710  105.8280    0.1350 C   0  0  0  0  0  0  0  0  0  0  0  0
   36.0360  105.3580    1.6440 Cl  0  0  0  0  0  0  0  0  0  0  0  0
   36.0150  106.4880   -0.8430 C   0  0  0  0  0  0  0  0  0  0  0  0
   35.4110  106.8580   -2.0380 C   0  0  0  0  0  0  0  0  0  0  0  0
   34.0650  106.5730   -2.2650 C   0  0  0  0  0  0  0  0  0  0  0  0
   33.3070  105.9090   -1.3020 C   0  0  0  0  0  0  0  0  0  0  0  0
   31.9560  105.6580   -1.5670 C   0  0  0  0  0  0  0  0  0  0  0  0
   31.5060  104.4200   -2.0150 C   0  0  0  0  0  0  0  0  0  0  0  0
   30.1580  104.1910   -2.2790 C   0  0  0  0  0  0  0  0  0  0  0  0
   29.2320  105.2060   -2.0970 C   0  0  0  0  0  0  0  0  0  0  0  0
   29.6670  106.4540   -1.6430 N   0  0  0  0  0  0  0  0  0  0  0  0
   31.0280  106.6770   -1.3830 C   0  0  0  0  0  0  0  0  0  0  0  0
   33.3580  103.4740    1.0670 C   0  0  0  0  0  0  0  0  0  0  0  0
   34.1460  102.6780    0.3030 N   0  0  0  0  0  0  0  0  0  0  0  0
   34.7920  102.7980   -1.0890 C   0  0  0  0  0  0  0  0  0  0  0  0
   35.7670  101.6500   -1.1720 C   0  0  1  0  0  0  0  0  0  0  0  0
   36.8900  101.5780   -0.1280 C   0  0  2  0  0  0  0  0  0  0  0  0
   38.1130  100.8440   -0.4810 N   0  0  0  0  0  0  0  0  0  0  0  0
   35.6130  100.7470    0.0330 C   0  0  1  0  0  0  0  0  0  0  0  0
   34.4490  101.3020    0.8400 C   0  0  0  0  0  0  0  0  0  0  0  0
   32.6570  102.8780    2.0610 N   0  0  0  0  0  0  0  0  0  0  0  0
   31.8410  103.5460    2.9000 C   0  0  0  0  0  0  0  0  0  0  0  0
   31.1720  102.8800    3.8650 N   0  0  0  0  0  0  0  0  0  0  0  0
 27 28  1  1
 28 22  1  0
 27 25  1  0
 27 24  1  0
 25 26  1  6
 25 24  1  0
 24 23  1  1
 23 22  1  0
 22 21  1  0
 21 29  2  0
 21  7  1  0
 29 30  1  0
 30 31  2  0
 30  5  1  0
 31  2  1  0
  2  1  1  0
  2  3  2  0
  3  4  1  0
  4  5  2  0
  5  6  1  0
  6  7  2  0
  7  8  1  0
  8  9  2  0
  8 14  1  0
  9 10  1  0
  9 11  1  0
 11 12  2  0
 12 13  1  0
 13 14  2  0
 14 15  1  0
 15 16  2  0
 15 20  1  0
 16 17  1  0
 17 18  2  0
 18 19  1  0
 19 20  2  0
M  CHG  1  26   1
M  END
$$$$
