
     RDKit          3D

 24 26  0  0  0  0  0  0  0  0999 V2000
   -4.3670   11.2822  -18.1283 O   0  0  0  0  0  0  0  0  0  0  0  0
   -4.6305   10.3438  -18.9205 C   0  0  0  0  0  0  0  0  0  0  0  0
   -5.1085    9.1204  -18.3796 N   0  0  0  0  0  0  0  0  0  0  0  0
   -4.8171    8.7204  -17.0629 N   0  0  0  0  0  0  0  0  0  0  0  0
   -4.6319   10.0723  -15.8729 S   0  0  2  0  0  0  0  0  0  0  0  0
   -3.2622   10.3824  -15.5000 O   0  0  0  0  0  0  0  0  0  0  0  0
   -5.5579    9.8388  -14.7499 O   0  0  0  0  0  0  0  0  0  0  0  0
   -5.1768   11.6226  -16.6886 C   0  0  0  0  0  0  0  0  0  0  0  0
   -4.2179   12.6633  -16.6907 C   0  0  0  0  0  0  0  0  0  0  0  0
   -4.5637   13.9692  -16.7631 C   0  0  0  0  0  0  0  0  0  0  0  0
   -5.9524   14.2411  -16.8568 C   0  0  0  0  0  0  0  0  0  0  0  0
   -6.3746   15.6053  -16.8481 C   0  0  0  0  0  0  0  0  0  0  0  0
   -7.7727   15.8543  -16.8838 C   0  0  0  0  0  0  0  0  0  0  0  0
   -8.7021   14.8199  -16.8866 C   0  0  0  0  0  0  0  0  0  0  0  0
   -8.3177   13.4814  -16.8945 C   0  0  0  0  0  0  0  0  0  0  0  0
   -6.9494   13.2191  -16.9431 C   0  0  0  0  0  0  0  0  0  0  0  0
   -6.5319   11.8493  -16.9400 C   0  0  0  0  0  0  0  0  0  0  0  0
   -4.7801   10.4771  -20.3378 C   0  0  0  0  0  0  0  0  0  0  0  0
   -3.6219   10.4087  -21.1168 C   0  0  0  0  0  0  0  0  0  0  0  0
   -3.7928   10.4083  -22.5044 C   0  0  0  0  0  0  0  0  0  0  0  0
   -5.0533   10.3959  -23.1827 C   0  0  0  0  0  0  0  0  0  0  0  0
   -6.2642   10.4044  -22.4312 C   0  0  0  0  0  0  0  0  0  0  0  0
   -6.0891   10.4372  -21.0577 C   0  0  0  0  0  0  0  0  0  0  0  0
   -7.2721   10.4329  -20.3383 F   0  0  0  0  0  0  0  0  0  0  0  0
  2 18  1  0
  2  1  2  0
  3  2  1  0
 18 23  4  0
 18 19  4  0
 23 22  4  0
 22 21  4  0
 23 24  1  0
 19 20  4  0
 20 21  4  0
 15 14  4  0
 16 15  4  0
 14 13  4  0
  4  3  1  0
  5  4  1  6
  5  6  2  0
  5  7  2  0
  8  5  1  0
 17  8  4  0
  8  9  4  0
 17 16  4  0
 16 11  4  0
 13 12  4  0
 12 11  4  0
 11 10  4  0
 10  9  4  0
M  END
$$$$
