
     RDKit          3D

 25 27  0  0  0  0  0  0  0  0999 V2000
    4.9424   10.2215   19.3591 O   0  0  0  0  0  0  0  0  0  0  0  0
    4.7968   10.9843   18.4355 C   0  0  0  0  0  0  0  0  0  0  0  0
    4.3995   10.5165   17.2147 N   0  0  0  0  0  0  0  0  0  0  0  0
    4.2162    8.9908   17.0280 N   0  0  0  0  0  0  0  0  0  0  0  0
    2.7600    8.4082   17.9812 S   0  0  1  0  0  0  0  0  0  0  0  0
    1.5877    9.1806   17.7494 O   0  0  0  0  0  0  0  0  0  0  0  0
    2.5545    6.8923   17.9228 O   0  0  0  0  0  0  0  0  0  0  0  0
    3.1803    8.6416   19.7734 C   0  0  0  0  0  0  0  0  0  0  0  0
    3.2659    7.5195   20.6230 C   0  0  0  0  0  0  0  0  0  0  0  0
    3.2094    7.7916   22.0247 C   0  0  0  0  0  0  0  0  0  0  0  0
    3.2157    9.0876   22.4425 C   0  0  0  0  0  0  0  0  0  0  0  0
    3.2381   10.1982   21.5514 C   0  0  0  0  0  0  0  0  0  0  0  0
    3.2615    9.9249   20.1193 C   0  0  0  0  0  0  0  0  0  0  0  0
    5.4257   12.2272   18.4958 C   0  0  0  0  0  0  0  0  0  0  0  0
    6.1463   12.5170   19.7070 C   0  0  0  0  0  0  0  0  0  0  0  0
    7.3728   13.2383   19.5349 C   0  0  0  0  0  0  0  0  0  0  0  0
    7.7908   13.7721   18.2567 C   0  0  0  0  0  0  0  0  0  0  0  0
    6.8626   13.7120   17.1618 C   0  0  0  0  0  0  0  0  0  0  0  0
    6.8494   14.7496   16.1915 C   0  0  0  0  0  0  0  0  0  0  0  0
    7.9319   14.8546   15.2699 C   0  0  0  0  0  0  0  0  0  0  0  0
    8.5953   16.1617   15.0092 C   0  0  0  0  0  0  0  0  0  0  0  0
    7.9882   17.3775   15.5399 C   0  0  0  0  0  0  0  0  0  0  0  0
    6.7922   17.1837   16.2404 C   0  0  0  0  0  0  0  0  0  0  0  0
    6.1811   15.8936   16.4980 C   0  0  0  0  0  0  0  0  0  0  0  0
    5.7181   12.8409   17.2803 C   0  0  0  0  0  0  0  0  0  0  0  0
 14  2  1  0
  2  1  2  0
  2  3  1  0
 25 14  4  0
 14 15  4  0
 18 25  4  0
 18 17  4  0
 19 18  1  0
 16 15  4  0
 17 16  4  0
 20 19  4  0
 19 24  4  0
 21 22  4  0
 22 23  4  0
 21 20  4  0
 23 24  4  0
  3  4  1  0
  5  4  1  6
  5  6  2  0
  5  7  2  0
  5  8  1  0
  8  9  4  0
  8 13  4  0
  9 10  4  0
 10 11  4  0
 11 12  4  0
 12 13  4  0
M  END
$$$$
