
     RDKit          3D

 25 27  0  0  0  0  0  0  0  0999 V2000
    9.0506   15.8355   20.8322 C   0  0  0  0  0  0  0  0  0  0  0  0
    8.4851   14.5556   21.1750 C   0  0  0  0  0  0  0  0  0  0  0  0
    8.1459   14.1791   22.4324 C   0  0  0  0  0  0  0  0  0  0  0  0
    7.0057   13.3066   22.6564 C   0  0  0  0  0  0  0  0  0  0  0  0
    6.3160   12.7725   21.5633 C   0  0  0  0  0  0  0  0  0  0  0  0
    6.8498   12.9329   20.2861 C   0  0  0  0  0  0  0  0  0  0  0  0
    6.3815   12.0662   19.1868 C   0  0  0  0  0  0  0  0  0  0  0  0
    7.0866   11.9430   18.1878 O   0  0  0  0  0  0  0  0  0  0  0  0
    5.3244   11.1332   19.5436 N   0  0  0  0  0  0  0  0  0  0  0  0
    5.2055    9.9446   18.8509 N   0  0  0  0  0  0  0  0  0  0  0  0
    3.9033    9.9244   17.8469 S   0  0  2  0  0  0  0  0  0  0  0  0
    2.6812    9.5093   18.4873 O   0  0  0  0  0  0  0  0  0  0  0  0
    4.2043    9.1693   16.6865 O   0  0  0  0  0  0  0  0  0  0  0  0
    3.5787   11.6048   17.2148 C   0  0  0  0  0  0  0  0  0  0  0  0
    3.0861   11.6464   15.9148 C   0  0  0  0  0  0  0  0  0  0  0  0
    3.8308   12.3758   14.9406 C   0  0  0  0  0  0  0  0  0  0  0  0
    5.0446   13.0898   15.3298 C   0  0  0  0  0  0  0  0  0  0  0  0
    6.0121   13.2601   14.2958 C   0  0  0  0  0  0  0  0  0  0  0  0
    7.3493   13.3114   14.7087 C   0  0  0  0  0  0  0  0  0  0  0  0
    7.7213   13.4521   16.0454 C   0  0  0  0  0  0  0  0  0  0  0  0
    6.7027   13.4851   17.0156 C   0  0  0  0  0  0  0  0  0  0  0  0
    5.3627   13.1717   16.6238 C   0  0  0  0  0  0  0  0  0  0  0  0
    4.4843   12.6015   17.6218 C   0  0  0  0  0  0  0  0  0  0  0  0
    7.9210   13.8236   20.0671 C   0  0  0  0  0  0  0  0  0  0  0  0
    8.5861   13.9113   18.9097 F   0  0  0  0  0  0  0  0  0  0  0  0
 14 23  4  0
 11 14  1  0
 14 15  4  0
 23 22  4  0
 22 17  4  0
 22 21  4  0
 17 18  4  0
 17 16  4  0
 18 19  4  0
 20 19  4  0
 21 20  4  0
  2  1  1  0
 24  2  4  0
  2  3  4  0
 24 25  1  0
  6 24  4  0
  6  5  4  0
  7  6  1  0
  5  4  4  0
  4  3  4  0
  7  8  2  0
  9  7  1  0
 10  9  1  0
 11 10  1  1
 11 12  2  0
 11 13  2  0
 16 15  4  0
M  END
$$$$
