
     RDKit          3D

 27 29  0  0  0  0  0  0  0  0999 V2000
    4.7725    6.9077   24.2674 C   0  0  0  0  0  0  0  0  0  0  0  0
    3.3652    7.4129   24.0442 C   0  0  0  0  0  0  0  0  0  0  0  0
    2.8169    8.4994   25.0120 C   0  0  0  0  0  0  0  0  0  0  0  0
    3.2538    9.9501   24.6931 C   0  0  0  0  0  0  0  0  0  0  0  0
    1.9984   10.6850   24.4043 N   0  0  0  0  0  0  0  0  0  0  0  0
    1.6078   11.1932   23.2399 C   0  0  0  0  0  0  0  0  0  0  0  0
    2.5773   12.0660   22.3183 C   0  0  0  0  0  0  0  0  0  0  0  0
    3.7756   12.4974   23.0005 C   0  0  0  0  0  0  0  0  0  0  0  0
    5.0068   11.7819   22.8944 C   0  0  0  0  0  0  0  0  0  0  0  0
    6.1079   12.1647   23.6995 C   0  0  0  0  0  0  0  0  0  0  0  0
    7.4193   11.8732   23.3961 O   0  0  0  0  0  0  0  0  0  0  0  0
    8.2128   12.9675   23.2146 C   0  0  0  0  0  0  0  0  0  0  0  0
    5.9014   13.0657   24.7037 C   0  0  0  0  0  0  0  0  0  0  0  0
    6.9022   13.4342   25.5983 O   0  0  0  0  0  0  0  0  0  0  0  0
    7.1454   14.8383   25.6884 C   0  0  0  0  0  0  0  0  0  0  0  0
    4.7771   13.8267   24.7445 C   0  0  0  0  0  0  0  0  0  0  0  0
    4.8182   14.9976   25.5044 O   0  0  0  0  0  0  0  0  0  0  0  0
    4.8087   16.2135   24.7022 C   0  0  0  0  0  0  0  0  0  0  0  0
    3.6905   13.5217   23.9521 C   0  0  0  0  0  0  0  0  0  0  0  0
    0.2855   11.2521   23.1167 N   0  0  0  0  0  0  0  0  0  0  0  0
   -0.1634   10.9394   24.3703 C   0  0  0  0  0  0  0  0  0  0  0  0
   -1.4456   10.9991   24.9173 C   0  0  0  0  0  0  0  0  0  0  0  0
   -2.4879   11.4360   24.2260 N   0  0  0  0  0  0  0  0  0  0  0  0
   -1.5564   10.8066   26.2249 N   0  0  0  0  0  0  0  0  0  0  0  0
   -0.4424   10.6331   27.0886 C   0  0  0  0  0  0  0  0  0  0  0  0
    0.8065   10.6549   26.4930 N   0  0  0  0  0  0  0  0  0  0  0  0
    0.8611   10.7070   25.1565 C   0  0  0  0  0  0  0  0  0  0  0  0
 27 21  4  0
 27 26  4  0
  5 27  4  0
 21 22  4  0
 20 21  4  0
 22 24  4  0
 22 23  1  0
  5  6  4  0
  6 20  4  0
  6  7  1  0
 25 24  4  0
 26 25  4  0
  2  1  1  0
  3  2  1  0
  4  3  1  0
  4  5  1  0
  7  8  1  0
  8 19  4  0
  8  9  4  0
 19 16  4  0
  9 10  4  0
 10 11  1  0
 10 13  4  0
 11 12  1  0
 13 14  1  0
 13 16  4  0
 14 15  1  0
 16 17  1  0
 17 18  1  0
M  END
$$$$
