
     RDKit          3D

 77 79  0  0  0  0  0  0  0  0999 V2000
  -26.2308    6.4688  -13.5075 H   0  0  0  0  0  0  0  0  0  0  0  0
  -27.2611    5.8090  -13.5239 N   0  0  0  0  0  0  0  0  0  0  0  0
  -26.8596    4.5835  -13.4122 C   0  0  0  0  0  0  0  0  0  0  0  0
  -26.8032    3.9742  -12.1086 N   0  0  0  0  0  0  0  0  0  0  0  0
  -26.6717    3.6290  -14.4337 N   0  0  0  0  0  0  0  0  0  0  0  0
  -25.7504    2.5271  -14.5289 C   0  0  0  0  0  0  0  0  0  0  0  0
  -25.5356    2.2413  -13.0292 C   0  0  0  0  0  0  0  0  0  0  0  0
  -24.6246    1.0407  -12.5445 C   0  0  0  0  0  0  0  0  0  0  0  0
  -24.7448    0.0640  -13.6581 C   0  0  2  0  0  0  0  0  0  0  0  0
  -25.8902   -0.8483  -13.4093 N   0  0  0  0  0  0  0  0  0  0  0  0
  -27.2390   -0.3827  -13.1596 C   0  0  0  0  0  0  0  0  0  0  0  0
  -27.9277   -0.9705  -12.3296 O   0  0  0  0  0  0  0  0  0  0  0  0
  -27.9293    0.3972  -14.3072 C   0  0  2  0  0  0  0  0  0  0  0  0
  -27.9545    1.8972  -13.9226 C   0  0  0  0  0  0  0  0  0  0  0  0
  -29.0875    2.6173  -14.5535 C   0  0  0  0  0  0  0  0  0  0  0  0
  -29.0107    2.6845  -16.3278 S   0  0  0  0  0  0  0  0  0  0  0  0
  -30.7198    2.6433  -16.9499 C   0  0  0  0  0  0  0  0  0  0  0  0
  -29.2446   -0.1851  -14.6360 N   0  0  0  0  0  0  0  0  0  0  0  0
  -29.6755   -1.2881  -13.8572 C   0  0  0  0  0  0  0  0  0  0  0  0
  -30.9393   -1.5141  -13.8777 O   0  0  0  0  0  0  0  0  0  0  0  0
  -23.4680   -0.7416  -13.8670 C   0  0  0  0  0  0  0  0  0  0  0  0
  -23.5375   -1.9564  -13.7613 O   0  0  0  0  0  0  0  0  0  0  0  0
  -22.1939   -0.0955  -13.8282 N   0  0  0  0  0  0  0  0  0  0  0  0
  -21.0690   -0.6893  -13.1601 C   0  0  1  0  0  0  0  0  0  0  0  0
  -20.0052    0.4965  -13.2378 C   0  0  0  0  0  0  0  0  0  0  0  0
  -19.1300    0.6585  -12.4119 O   0  0  0  0  0  0  0  0  0  0  0  0
  -19.9357    1.0267  -14.5643 N   0  0  0  0  0  0  0  0  0  0  0  0
  -18.9838    0.4860  -15.4802 C   0  0  0  0  0  0  0  0  0  0  0  0
  -18.3679   -0.8429  -15.0695 C   0  0  0  0  0  0  0  0  0  0  0  0
  -17.1359   -1.0363  -15.2586 O   0  0  0  0  0  0  0  0  0  0  0  0
  -19.2768   -1.8847  -14.9635 N   0  0  0  0  0  0  0  0  0  0  0  0
  -19.5087   -2.1469  -13.5920 C   0  0  1  0  0  0  0  0  0  0  0  0
  -20.9042   -2.5632  -13.3986 C   0  0  0  0  0  0  0  0  0  0  0  0
  -21.3013   -3.9808  -13.2042 C   0  0  0  0  0  0  0  0  0  0  0  0
  -21.1435   -4.4683  -11.9594 N   0  0  0  0  0  0  0  0  0  0  0  0
  -21.1278   -4.6736  -14.2277 O   0  0  0  0  0  0  0  0  0  0  0  0
  -18.5779   -3.2443  -12.9146 C   0  0  0  0  0  0  0  0  0  0  0  0
  -18.7187   -3.7451  -11.8417 O   0  0  0  0  0  0  0  0  0  0  0  0
  -17.2507   -3.1499  -13.5162 N   0  0  0  0  0  0  0  0  0  0  0  0
  -16.8311   -1.9858  -14.2872 C   0  0  1  0  0  0  0  0  0  0  0  0
  -17.6039   -0.7983  -13.8562 C   0  0  0  0  0  0  0  0  0  0  0  0
  -15.3336   -1.9088  -13.9770 C   0  0  0  0  0  0  0  0  0  0  0  0
  -14.7923   -2.6371  -13.1525 O   0  0  0  0  0  0  0  0  0  0  0  0
  -14.4678   -1.2775  -14.9114 N   0  0  0  0  0  0  0  0  0  0  0  0
  -14.2697   -1.8702  -16.2295 C   0  0  2  0  0  0  0  0  0  0  0  0
  -14.9293   -0.9903  -17.2794 C   0  0  0  0  0  0  0  0  0  0  0  0
  -14.4115    0.4319  -17.3882 C   0  0  0  0  0  0  0  0  0  0  0  0
  -13.2078    0.5354  -16.9886 O   0  0  0  0  0  0  0  0  0  0  0  0
  -15.1976    1.4269  -17.9252 O   0  0  0  0  0  0  0  0  0  0  0  0
  -14.7817   -3.2617  -16.4174 C   0  0  0  0  0  0  0  0  0  0  0  0
  -15.3097   -3.5727  -17.5097 O   0  0  0  0  0  0  0  0  0  0  0  0
  -15.0493   -3.9781  -15.2345 N   0  0  0  0  0  0  0  0  0  0  0  0
  -14.7722   -5.6112  -15.0367 P   0  0  1  0  0  0  0  0  0  0  0  0
  -15.9791   -6.0868  -14.2358 O   0  0  0  0  0  0  0  0  0  0  0  0
  -14.5548   -6.2353  -16.4331 O   0  0  0  0  0  0  0  0  0  0  0  0
  -13.4112   -5.8011  -14.2959 O   0  0  0  0  0  0  0  0  0  0  0  0
  -12.2401   -5.9435  -15.1146 C   0  0  0  0  0  0  0  0  0  0  0  0
  -11.8400   -7.4627  -14.9996 C   0  0  1  0  0  0  0  0  0  0  0  0
  -11.3817   -7.6511  -13.8115 O   0  0  0  0  0  0  0  0  0  0  0  0
  -12.2220   -8.7627  -13.0754 C   0  0  1  0  0  0  0  0  0  0  0  0
  -12.2060   -8.3916  -11.6894 N   0  0  0  0  0  0  0  0  0  0  0  0
  -13.2440   -8.3080  -10.8215 C   0  0  0  0  0  0  0  0  0  0  0  0
  -12.8145   -8.2907   -9.6082 N   0  0  0  0  0  0  0  0  0  0  0  0
  -11.4368   -8.3231   -9.6305 C   0  0  0  0  0  0  0  0  0  0  0  0
  -10.4856   -8.3161   -8.6440 C   0  0  0  0  0  0  0  0  0  0  0  0
  -10.8755   -7.9752   -7.2624 N   0  0  0  0  0  0  0  0  0  0  0  0
   -9.2136   -8.3639   -9.0045 N   0  0  0  0  0  0  0  0  0  0  0  0
   -8.8682   -8.4109  -10.3070 C   0  0  0  0  0  0  0  0  0  0  0  0
   -9.7496   -8.4313  -11.2479 N   0  0  0  0  0  0  0  0  0  0  0  0
  -11.0679   -8.3483  -10.9005 C   0  0  0  0  0  0  0  0  0  0  0  0
  -13.4422   -8.7512  -13.6690 C   0  0  2  0  0  0  0  0  0  0  0  0
  -13.9948  -10.0887  -13.6618 O   0  0  0  0  0  0  0  0  0  0  0  0
  -13.1316   -8.3127  -15.1787 C   0  0  2  0  0  0  0  0  0  0  0  0
  -12.9771   -9.3108  -16.0892 O   0  0  0  0  0  0  0  0  0  0  0  0
  -21.3023   -1.0937  -11.7526 C   0  0  1  0  0  0  0  0  0  0  0  0
  -22.8022   -1.0693  -11.4958 C   0  0  0  0  0  0  0  0  0  0  0  0
  -20.6899   -2.3709  -11.6217 O   0  0  0  0  0  0  0  0  0  0  0  0
 18 19  1  0
 13 18  1  0
 19 20  2  0
 13 14  1  1
 11 13  1  0
 14 15  1  0
 15 16  1  0
 16 17  1  0
 11 12  2  0
 10 11  1  0
  9 10  1  0
 21  9  1  0
  9  8  1  1
 21 22  2  0
 23 21  1  0
  8  7  1  0
  7  6  1  0
  6  5  1  0
  5  3  1  0
  3  4  1  0
  3  2  2  0
 24 23  1  6
 25 24  1  0
 24 75  1  0
 25 26  2  0
 27 25  1  0
 75 77  1  0
 75 76  1  6
 28 27  1  0
 29 28  1  0
 29 30  2  0
 31 29  1  0
 32 31  1  0
 37 32  1  0
 32 33  1  6
 37 38  2  0
 39 37  1  0
 33 34  1  0
 34 36  2  0
 34 35  1  0
 40 39  1  0
 42 40  1  0
 40 41  1  1
 42 43  2  0
 44 42  1  0
 45 44  1  0
 50 45  1  0
 45 46  1  1
 50 51  2  0
 52 50  1  0
 46 47  1  0
 47 48  2  0
 47 49  1  0
 53 54  2  0
 53 55  1  6
 53 52  1  0
 53 56  1  0
 56 57  1  0
 58 57  1  1
 58 73  1  0
 58 59  1  0
 73 74  1  6
 73 71  1  0
 71 72  1  6
 71 60  1  0
 60 59  1  0
 60 61  1  1
 61 70  4  0
 61 62  4  0
 70 64  4  0
 70 69  4  0
 64 63  4  0
 64 65  4  0
 63 62  4  0
 69 68  4  0
 68 67  4  0
 67 65  4  0
 65 66  1  0
  2  1  1  0
M  END
$$$$
