
     RDKit          3D

 77 79  0  0  0  0  0  0  0  0999 V2000
  -22.9757   18.0926  -17.1110 H   0  0  0  0  0  0  0  0  0  0  0  0
  -22.1930   18.6420  -16.7560 N   0  0  0  0  0  0  0  0  0  0  0  0
  -21.6260   18.3140  -15.6420 C   0  0  0  0  0  0  0  0  0  0  0  0
  -20.5080   19.0700  -15.1380 N   0  0  0  0  0  0  0  0  0  0  0  0
  -21.9520   17.2320  -14.7830 N   0  0  0  0  0  0  0  0  0  0  0  0
  -22.9540   16.2140  -14.8830 C   0  0  0  0  0  0  0  0  0  0  0  0
  -22.0630   14.9730  -14.8400 C   0  0  0  0  0  0  0  0  0  0  0  0
  -21.9940   14.0400  -13.5670 C   0  0  0  0  0  0  0  0  0  0  0  0
  -20.9150   13.0350  -13.9530 C   0  0  2  0  0  0  0  0  0  0  0  0
  -21.4450   12.1580  -15.0350 N   0  0  0  0  0  0  0  0  0  0  0  0
  -20.6070   11.6200  -16.1030 C   0  0  0  0  0  0  0  0  0  0  0  0
  -19.4360   11.8470  -16.1110 O   0  0  0  0  0  0  0  0  0  0  0  0
  -21.2960   10.6690  -17.0970 C   0  0  2  0  0  0  0  0  0  0  0  0
  -20.5180   10.7230  -18.4250 C   0  0  0  0  0  0  0  0  0  0  0  0
  -20.7830   12.0230  -19.2220 C   0  0  0  0  0  0  0  0  0  0  0  0
  -19.7400   12.1340  -20.6790 S   0  0  0  0  0  0  0  0  0  0  0  0
  -18.0440   11.7180  -20.1080 C   0  0  0  0  0  0  0  0  0  0  0  0
  -22.7340   11.0070  -17.2370 N   0  0  0  0  0  0  0  0  0  0  0  0
  -23.7180   10.0110  -16.8720 C   0  0  0  0  0  0  0  0  0  0  0  0
  -23.3780    8.9490  -16.4780 O   0  0  0  0  0  0  0  0  0  0  0  0
  -20.4220   12.1910  -12.8010 C   0  0  0  0  0  0  0  0  0  0  0  0
  -20.1090   12.7010  -11.7600 O   0  0  0  0  0  0  0  0  0  0  0  0
  -20.4190   10.7430  -12.9300 N   0  0  0  0  0  0  0  0  0  0  0  0
  -19.8560    9.8720  -11.9430 C   0  0  2  0  0  0  0  0  0  0  0  0
  -18.7800    9.1050  -12.7450 C   0  0  0  0  0  0  0  0  0  0  0  0
  -18.6470    9.1230  -13.9640 O   0  0  0  0  0  0  0  0  0  0  0  0
  -17.9230    8.3210  -11.8860 N   0  0  0  0  0  0  0  0  0  0  0  0
  -16.8690    7.5610  -12.4490 C   0  0  0  0  0  0  0  0  0  0  0  0
  -17.2990    6.3870  -13.3000 C   0  0  0  0  0  0  0  0  0  0  0  0
  -18.3490    5.7950  -13.1590 O   0  0  0  0  0  0  0  0  0  0  0  0
  -16.2950    5.9360  -14.1990 N   0  0  0  0  0  0  0  0  0  0  0  0
  -16.7300    4.7730  -14.9570 C   0  0  1  0  0  0  0  0  0  0  0  0
  -16.2390    4.9040  -16.3200 C   0  0  0  0  0  0  0  0  0  0  0  0
  -14.9090    5.4790  -16.5960 C   0  0  0  0  0  0  0  0  0  0  0  0
  -13.8520    4.5810  -16.5250 N   0  0  0  0  0  0  0  0  0  0  0  0
  -14.8110    6.6100  -16.8770 O   0  0  0  0  0  0  0  0  0  0  0  0
  -16.3190    3.4230  -14.3530 C   0  0  0  0  0  0  0  0  0  0  0  0
  -15.5440    3.2520  -13.4350 O   0  0  0  0  0  0  0  0  0  0  0  0
  -17.0710    2.3180  -14.9390 N   0  0  0  0  0  0  0  0  0  0  0  0
  -16.7620    0.9540  -14.6240 C   0  0  1  0  0  0  0  0  0  0  0  0
  -18.0070    0.2070  -14.1790 C   0  0  0  0  0  0  0  0  0  0  0  0
  -16.1710    0.4370  -15.9290 C   0  0  0  0  0  0  0  0  0  0  0  0
  -16.2970    1.0250  -16.9640 O   0  0  0  0  0  0  0  0  0  0  0  0
  -15.4680   -0.8080  -15.9310 N   0  0  0  0  0  0  0  0  0  0  0  0
  -14.8490   -1.2820  -17.1750 C   0  0  1  0  0  0  0  0  0  0  0  0
  -13.4910   -0.5680  -17.3550 C   0  0  0  0  0  0  0  0  0  0  0  0
  -12.8390   -0.0310  -16.0830 C   0  0  0  0  0  0  0  0  0  0  0  0
  -12.3370   -0.9660  -15.3750 O   0  0  0  0  0  0  0  0  0  0  0  0
  -12.8460    1.2450  -15.8450 O   0  0  0  0  0  0  0  0  0  0  0  0
  -14.5670   -2.7580  -17.2430 C   0  0  0  0  0  0  0  0  0  0  0  0
  -13.9140   -3.2470  -18.1390 O   0  0  0  0  0  0  0  0  0  0  0  0
  -15.2030   -3.5050  -16.2110 N   0  0  0  0  0  0  0  0  0  0  0  0
  -15.0460   -5.1890  -16.0560 P   0  0  1  0  0  0  0  0  0  0  0  0
  -15.7420   -5.5000  -14.7620 O   0  0  0  0  0  0  0  0  0  0  0  0
  -15.5610   -5.8650  -17.3190 O   0  0  0  0  0  0  0  0  0  0  0  0
  -13.4910   -5.4980  -16.0220 O   0  0  0  0  0  0  0  0  0  0  0  0
  -12.7510   -4.9270  -14.9000 C   0  0  0  0  0  0  0  0  0  0  0  0
  -11.4960   -5.8240  -14.7470 C   0  0  1  0  0  0  0  0  0  0  0  0
  -10.6930   -5.1880  -13.9530 O   0  0  0  0  0  0  0  0  0  0  0  0
  -10.4100   -6.1490  -12.6790 C   0  0  1  0  0  0  0  0  0  0  0  0
  -10.2080   -5.2470  -11.5810 N   0  0  0  0  0  0  0  0  0  0  0  0
  -11.1000   -4.3980  -11.0490 C   0  0  0  0  0  0  0  0  0  0  0  0
  -10.5510   -3.7160  -10.0630 N   0  0  0  0  0  0  0  0  0  0  0  0
   -9.2610   -4.1140   -9.9700 C   0  0  0  0  0  0  0  0  0  0  0  0
   -8.2070   -3.7580   -9.1550 C   0  0  0  0  0  0  0  0  0  0  0  0
   -8.3920   -2.7660   -8.1110 N   0  0  0  0  0  0  0  0  0  0  0  0
   -7.0500   -4.3420   -9.3190 N   0  0  0  0  0  0  0  0  0  0  0  0
   -6.8550   -5.2590  -10.2730 C   0  0  0  0  0  0  0  0  0  0  0  0
   -7.8260   -5.6320  -11.0510 N   0  0  0  0  0  0  0  0  0  0  0  0
   -9.0380   -5.0550  -10.9110 C   0  0  0  0  0  0  0  0  0  0  0  0
  -11.4570   -6.9820  -12.6070 C   0  0  2  0  0  0  0  0  0  0  0  0
  -10.9930   -8.2670  -12.0370 O   0  0  0  0  0  0  0  0  0  0  0  0
  -11.9320   -7.1860  -14.1080 C   0  0  2  0  0  0  0  0  0  0  0  0
  -11.4400   -8.2730  -14.7910 O   0  0  0  0  0  0  0  0  0  0  0  0
  -20.8170    8.9220  -11.2570 C   0  0  1  0  0  0  0  0  0  0  0  0
  -21.7920    9.7880  -10.4270 C   0  0  0  0  0  0  0  0  0  0  0  0
  -21.4370    8.1870  -12.2610 O   0  0  0  0  0  0  0  0  0  0  0  0
 18 19  1  0
 13 18  1  0
 19 20  2  0
 13 14  1  6
 11 13  1  0
 14 15  1  0
 15 16  1  0
 16 17  1  0
 11 12  2  0
 10 11  1  0
  9 10  1  0
 21  9  1  0
  9  8  1  1
 21 22  2  0
 23 21  1  0
  8  7  1  0
  7  6  1  0
  6  5  1  0
  5  3  1  0
  3  4  1  0
  3  2  2  0
 24 23  1  6
 25 24  1  0
 24 75  1  0
 25 26  2  0
 27 25  1  0
 75 77  1  0
 75 76  1  6
 28 27  1  0
 29 28  1  0
 29 30  2  0
 31 29  1  0
 32 31  1  0
 37 32  1  0
 32 33  1  6
 37 38  2  0
 39 37  1  0
 33 34  1  0
 34 36  2  0
 34 35  1  0
 40 39  1  0
 42 40  1  0
 40 41  1  6
 42 43  2  0
 44 42  1  0
 45 44  1  0
 50 45  1  0
 45 46  1  1
 50 51  2  0
 52 50  1  0
 46 47  1  0
 47 48  2  0
 47 49  1  0
 53 54  2  0
 53 55  1  6
 53 52  1  0
 53 56  1  0
 56 57  1  0
 58 57  1  1
 58 73  1  0
 58 59  1  0
 73 74  1  6
 73 71  1  0
 71 72  1  6
 71 60  1  0
 60 59  1  0
 60 61  1  1
 61 70  1  0
 61 62  1  0
 70 64  2  0
 70 69  1  0
 64 63  1  0
 64 65  1  0
 63 62  2  0
 69 68  2  0
 68 67  1  0
 67 65  2  0
 65 66  1  0
  2  1  1  0
M  END
$$$$
