
     RDKit          3D

 26 29  0  0  0  0  0  0  0  0999 V2000
  -10.5480   -4.6840   18.6850 C   0  0  0  0  0  0  0  0  0  0  0  0
  -10.8100   -3.5460   19.6430 C   0  0  0  0  0  0  0  0  0  0  0  0
  -10.8760   -3.7800   21.0160 C   0  0  0  0  0  0  0  0  0  0  0  0
  -11.1250   -2.7230   21.8800 C   0  0  0  0  0  0  0  0  0  0  0  0
  -11.3140   -1.4250   21.3880 C   0  0  0  0  0  0  0  0  0  0  0  0
  -11.5640   -0.3150   22.3810 C   0  0  0  0  0  0  0  0  0  0  0  0
  -11.2490   -1.1760   20.0070 C   0  0  0  0  0  0  0  0  0  0  0  0
  -11.4200    0.2250   19.3960 C   0  0  0  0  0  0  0  0  0  0  0  0
  -12.5350    0.2440   18.4120 N   0  0  0  0  0  0  0  0  0  0  0  0
  -12.3350    0.7570   17.1400 C   0  0  0  0  0  0  0  0  0  0  0  0
  -11.0300    1.1310   16.3860 C   0  0  1  0  0  0  0  0  0  0  0  0
  -10.2610    2.1060   17.0880 O   0  0  0  0  0  0  0  0  0  0  0  0
  -10.2390   -0.1320   16.1580 C   0  0  0  0  0  0  0  0  0  0  0  0
   -9.0160   -0.3970   16.8310 C   0  0  0  0  0  0  0  0  0  0  0  0
   -8.3320   -1.6020   16.6240 C   0  0  0  0  0  0  0  0  0  0  0  0
   -8.8450   -2.5520   15.7580 N   0  0  0  0  0  0  0  0  0  0  0  0
  -10.0470   -2.3100   15.0840 C   0  0  0  0  0  0  0  0  0  0  0  0
  -10.7490   -1.1110   15.2920 C   0  0  0  0  0  0  0  0  0  0  0  0
  -13.5220    0.6040   16.4400 N   0  0  0  0  0  0  0  0  0  0  0  0
  -14.4780    0.1490   17.3910 C   0  0  0  0  0  0  0  0  0  0  0  0
  -15.8320   -0.1010   17.2660 C   0  0  0  0  0  0  0  0  0  0  0  0
  -16.5460   -0.5580   18.3430 C   0  0  0  0  0  0  0  0  0  0  0  0
  -15.9100   -0.7730   19.5620 C   0  0  0  0  0  0  0  0  0  0  0  0
  -14.5480   -0.5320   19.7160 C   0  0  0  0  0  0  0  0  0  0  0  0
  -13.8390   -0.0730   18.6350 C   0  0  0  0  0  0  0  0  0  0  0  0
  -10.9910   -2.2450   19.1480 C   0  0  0  0  0  0  0  0  0  0  0  0
 24 23  2  0
 25 24  1  0
 22 23  1  0
 14 15  2  0
 13 14  1  0
 21 22  2  0
 20 21  1  0
 19 20  1  0
 20 25  2  0
 10 19  2  0
 15 16  1  0
 17 16  2  0
 18 17  1  0
  8  7  1  0
  9  8  1  0
  5  4  2  0
  4  3  1  0
  7  5  1  0
  7 26  2  0
  5  6  1  0
  2  3  2  0
 26  2  1  0
  2  1  1  0
 11 12  1  1
 11 13  1  0
 10 11  1  0
 13 18  2  0
 10  9  1  0
  9 25  1  0
M  END
$$$$
