
     RDKit          3D

 26 29  0  0  0  0  0  0  0  0999 V2000
   -6.7789   -4.5763   18.4984 C   0  0  0  0  0  0  0  0  0  0  0  0
   -7.2641   -3.1559   18.1781 C   0  0  0  0  0  0  0  0  0  0  0  0
   -6.3504   -2.1493   18.0958 C   0  0  0  0  0  0  0  0  0  0  0  0
   -6.7798   -0.8298   18.0301 C   0  0  0  0  0  0  0  0  0  0  0  0
   -8.1683   -0.5232   18.0246 C   0  0  0  0  0  0  0  0  0  0  0  0
   -8.5891    0.8993   18.0409 C   0  0  0  0  0  0  0  0  0  0  0  0
   -9.1067   -1.5899   17.9792 C   0  0  0  0  0  0  0  0  0  0  0  0
  -10.6358   -1.3448   17.9514 C   0  0  0  0  0  0  0  0  0  0  0  0
  -11.0623   -1.0979   16.5519 N   0  0  0  0  0  0  0  0  0  0  0  0
  -10.1560   -0.7541   15.5499 C   0  0  0  0  0  0  0  0  0  0  0  0
   -9.0534    0.3194   15.5834 C   0  0  1  0  0  0  0  0  0  0  0  0
   -8.0289    0.0022   16.4999 O   0  0  0  0  0  0  0  0  0  0  0  0
   -8.5171    0.4763   14.1870 C   0  0  0  0  0  0  0  0  0  0  0  0
   -7.9880    1.7008   13.6910 C   0  0  0  0  0  0  0  0  0  0  0  0
   -6.8257    1.6982   12.8980 C   0  0  0  0  0  0  0  0  0  0  0  0
   -6.2973    0.5162   12.4069 N   0  0  0  0  0  0  0  0  0  0  0  0
   -6.9578   -0.7092   12.6832 C   0  0  0  0  0  0  0  0  0  0  0  0
   -8.1421   -0.6964   13.4841 C   0  0  0  0  0  0  0  0  0  0  0  0
  -10.7202   -1.1230   14.3508 N   0  0  0  0  0  0  0  0  0  0  0  0
  -12.1061   -1.3626   14.6368 C   0  0  0  0  0  0  0  0  0  0  0  0
  -13.2254   -1.2691   13.8013 C   0  0  0  0  0  0  0  0  0  0  0  0
  -14.4930   -1.1866   14.3207 C   0  0  0  0  0  0  0  0  0  0  0  0
  -14.6444   -1.2722   15.6829 C   0  0  0  0  0  0  0  0  0  0  0  0
  -13.5733   -1.3753   16.5634 C   0  0  0  0  0  0  0  0  0  0  0  0
  -12.3018   -1.2933   16.0121 C   0  0  0  0  0  0  0  0  0  0  0  0
   -8.6409   -2.8822   18.0506 C   0  0  0  0  0  0  0  0  0  0  0  0
 24 23  4  0
 25 24  4  0
 22 23  4  0
 14 15  4  0
 13 14  4  0
 21 22  4  0
 20 21  4  0
 19 20  4  0
 20 25  4  0
 10 19  4  0
 15 16  4  0
 17 16  4  0
 18 17  4  0
  8  7  1  0
  9  8  1  0
  5  4  4  0
  4  3  4  0
  7  5  4  0
  7 26  4  0
  5  6  1  0
  2  3  4  0
 26  2  4  0
  2  1  1  0
 11 12  1  1
 11 13  1  0
 10 11  1  0
 13 18  4  0
 10  9  4  0
  9 25  4  0
M  END
$$$$
