
     RDKit          3D

 36 39  0  0  0  0  0  0  0  0999 V2000
  -43.9140  -14.7900   13.9790 C   0  0  0  0  0  0  0  0  0  0  0  0
  -43.5090  -15.6330   12.9320 O   0  0  0  0  0  0  0  0  0  0  0  0
  -44.5180  -15.9730   12.0160 C   0  0  0  0  0  0  0  0  0  0  0  0
  -45.7970  -15.5080   12.2040 C   0  0  0  0  0  0  0  0  0  0  0  0
  -46.7870  -15.8360   11.3000 C   0  0  0  0  0  0  0  0  0  0  0  0
  -48.1770  -15.4030   11.3740 N   0  0  0  0  0  0  0  0  0  0  0  0
  -48.5800  -14.0230   11.5770 C   0  0  0  0  0  0  0  0  0  0  0  0
  -47.6240  -13.1670   11.1530 C   0  0  0  0  0  0  0  0  0  0  0  0
  -46.2440  -13.0370   10.5110 C   0  0  0  0  0  0  0  0  0  0  0  0
  -45.2170  -13.0730   10.0350 N   0  0  0  0  0  0  0  0  0  0  0  0
  -47.8280  -11.7700   11.2840 C   0  0  0  0  0  0  0  0  0  0  0  0
  -49.0020  -11.3030   11.8340 N   0  0  0  0  0  0  0  0  0  0  0  0
  -49.9750  -12.2040   12.2490 C   0  0  0  0  0  0  0  0  0  0  0  0
  -51.2030  -11.7780   12.8050 C   0  0  0  0  0  0  0  0  0  0  0  0
  -52.1470  -12.7260   13.2140 C   0  0  0  0  0  0  0  0  0  0  0  0
  -53.4000  -12.4500   13.7800 O   0  0  0  0  0  0  0  0  0  0  0  0
  -53.9170  -11.2070   13.3770 C   0  0  0  0  0  0  0  0  0  0  0  0
  -55.4490  -11.2870   13.3650 C   0  0  0  0  0  0  0  0  0  0  0  0
  -55.9110  -12.3080   14.4150 C   0  0  0  0  0  0  0  0  0  0  0  0
  -56.5840  -11.6260   15.5170 N   0  0  2  0  0  0  0  0  0  0  0  0
  -56.9320  -12.6050   16.5370 C   0  0  0  0  0  0  0  0  0  0  0  0
  -57.7360  -11.9740   17.6750 C   0  0  0  0  0  0  0  0  0  0  0  0
  -58.8820  -11.2000   17.2180 N   0  0  1  0  0  0  0  0  0  0  0  0
  -59.4780  -10.5040   18.3510 C   0  0  0  0  0  0  0  0  0  0  0  0
  -58.5440  -10.2490   16.1670 C   0  0  0  0  0  0  0  0  0  0  0  0
  -57.7590  -10.9100   15.0260 C   0  0  0  0  0  0  0  0  0  0  0  0
  -51.9040  -14.1060   13.0800 C   0  0  0  0  0  0  0  0  0  0  0  0
  -52.8770  -15.0320   13.5200 O   0  0  0  0  0  0  0  0  0  0  0  0
  -52.5580  -16.3930   13.3490 C   0  0  0  0  0  0  0  0  0  0  0  0
  -50.6990  -14.5300   12.5300 C   0  0  0  0  0  0  0  0  0  0  0  0
  -49.7490  -13.5650   12.1230 C   0  0  0  0  0  0  0  0  0  0  0  0
  -46.5160  -16.6380   10.2100 C   0  0  0  0  0  0  0  0  0  0  0  0
  -47.6290  -17.1700    8.9250 Cl  0  0  0  0  0  0  0  0  0  0  0  0
  -45.2270  -17.1300   10.0000 C   0  0  0  0  0  0  0  0  0  0  0  0
  -44.2260  -16.7870   10.9350 C   0  0  0  0  0  0  0  0  0  0  0  0
  -42.5190  -17.3270   10.8120 Cl  0  0  0  0  0  0  0  0  0  0  0  0
 28 29  1  0
  3  2  1  0
  2  1  1  0
 18 19  1  0
 20 19  1  6
  9 10  3  0
 35 36  1  0
 32 33  1  0
  8  9  1  0
 12 11  2  0
 11  8  1  0
 34 35  2  0
 32 34  1  0
  4  3  2  0
  5  4  1  0
 15 14  1  0
 14 13  2  0
 27 30  1  0
 30 31  2  0
 17 18  1  0
 16 17  1  0
 23 24  1  1
 21 22  1  0
 20 21  1  0
 26 25  1  0
 20 26  1  0
 22 23  1  0
 25 23  1  0
 13 12  1  0
  6  5  1  0
  7  6  1  0
 27 28  1  0
 15 16  1  0
  3 35  1  0
  5 32  2  0
  8  7  2  0
 27 15  2  0
  7 31  1  0
 13 31  1  0
M  CHG  2  20   1  23   1
M  END
$$$$
