
     RDKit          3D

 36 39  0  0  0  0  0  0  0  0999 V2000
  -43.3110  -14.2997    9.3390 C   0  0  0  0  0  0  0  0  0  0  0  0
  -44.7113  -14.1805    9.2389 O   0  0  0  0  0  0  0  0  0  0  0  0
  -45.3969  -14.8160   10.3070 C   0  0  0  0  0  0  0  0  0  0  0  0
  -46.7397  -14.6246   10.3904 C   0  0  0  0  0  0  0  0  0  0  0  0
  -47.4507  -15.3535   11.3436 C   0  0  0  0  0  0  0  0  0  0  0  0
  -48.8292  -15.0939   11.7430 N   0  0  0  0  0  0  0  0  0  0  0  0
  -49.3127  -13.7498   12.0070 C   0  0  0  0  0  0  0  0  0  0  0  0
  -48.3119  -12.8368   12.0249 C   0  0  0  0  0  0  0  0  0  0  0  0
  -46.7906  -12.5986   11.9208 C   0  0  0  0  0  0  0  0  0  0  0  0
  -45.8271  -12.7226   11.2237 N   0  0  0  0  0  0  0  0  0  0  0  0
  -48.6134  -11.4448   12.1335 C   0  0  0  0  0  0  0  0  0  0  0  0
  -49.9210  -11.0700   12.2032 N   0  0  0  0  0  0  0  0  0  0  0  0
  -50.9648  -12.0125   12.2499 C   0  0  0  0  0  0  0  0  0  0  0  0
  -52.3195  -11.6505   12.2745 C   0  0  0  0  0  0  0  0  0  0  0  0
  -53.2849  -12.6575   12.3861 C   0  0  0  0  0  0  0  0  0  0  0  0
  -54.6595  -12.4590   12.6097 O   0  0  0  0  0  0  0  0  0  0  0  0
  -55.4647  -12.9706   11.6154 C   0  0  0  0  0  0  0  0  0  0  0  0
  -56.4264  -14.0268   12.1703 C   0  0  0  0  0  0  0  0  0  0  0  0
  -55.7849  -15.4066   12.0858 C   0  0  0  0  0  0  0  0  0  0  0  0
  -56.7727  -16.3902   11.6997 N   0  0  1  0  0  0  0  0  0  0  0  0
  -56.7775  -16.5196   10.2236 C   0  0  0  0  0  0  0  0  0  0  0  0
  -57.7314  -17.6128    9.7427 C   0  0  0  0  0  0  0  0  0  0  0  0
  -57.4967  -18.9098   10.4429 N   0  0  2  0  0  0  0  0  0  0  0  0
  -58.5429  -19.8527   10.0507 C   0  0  0  0  0  0  0  0  0  0  0  0
  -57.4983  -18.7708   11.8769 C   0  0  0  0  0  0  0  0  0  0  0  0
  -56.5270  -17.6852   12.3452 C   0  0  0  0  0  0  0  0  0  0  0  0
  -52.9521  -14.0433   12.3455 C   0  0  0  0  0  0  0  0  0  0  0  0
  -53.9470  -15.0098   12.3891 O   0  0  0  0  0  0  0  0  0  0  0  0
  -53.5252  -16.3394   12.5226 C   0  0  0  0  0  0  0  0  0  0  0  0
  -51.6009  -14.3823   12.2721 C   0  0  0  0  0  0  0  0  0  0  0  0
  -50.6112  -13.3712   12.2437 C   0  0  0  0  0  0  0  0  0  0  0  0
  -46.8567  -16.3414   12.0792 C   0  0  0  0  0  0  0  0  0  0  0  0
  -47.5316  -17.3969   13.3192 Cl  0  0  0  0  0  0  0  0  0  0  0  0
  -45.4418  -16.5144   12.0227 C   0  0  0  0  0  0  0  0  0  0  0  0
  -44.7144  -15.6996   11.1164 C   0  0  0  0  0  0  0  0  0  0  0  0
  -42.9287  -15.6092   11.0852 Cl  0  0  0  0  0  0  0  0  0  0  0  0
 28 29  1  0
  3  2  1  0
  2  1  1  0
 18 19  1  0
 20 19  1  1
  9 10  3  0
 35 36  1  0
 32 33  1  0
  8  9  1  0
 12 11  4  0
 11  8  4  0
 34 35  4  0
 32 34  4  0
  4  3  4  0
  5  4  4  0
 15 14  4  0
 14 13  4  0
 27 30  4  0
 30 31  4  0
 17 18  1  0
 16 17  1  0
 23 24  1  6
 21 22  1  0
 20 21  1  0
 26 25  1  0
 20 26  1  0
 22 23  1  0
 25 23  1  0
 13 12  4  0
  6  5  1  0
  7  6  1  0
 27 28  1  0
 15 16  1  0
  3 35  4  0
  5 32  4  0
  8  7  4  0
 27 15  4  0
  7 31  4  0
 13 31  4  0
M  CHG  2  20   1  23   1
M  END
$$$$
