
     RDKit          3D

 15 16  0  0  0  0  0  0  0  0999 V2000
    0.5661   28.9192   29.9723 N   0  0  0  0  0  4  0  0  0  0  0  0
    0.4230   28.8024   28.4883 C   0  0  1  0  0  0  0  0  0  0  0  0
    1.2615   29.8594   27.7399 C   0  0  0  0  0  0  0  0  0  0  0  0
    2.0313   29.3212   26.5717 C   0  0  0  0  0  0  0  0  0  0  0  0
    2.6298   28.0937   26.5231 C   0  0  0  0  0  0  0  0  0  0  0  0
    2.5696   27.5995   25.2779 N   0  0  0  0  0  0  0  0  0  0  0  0
    2.0226   28.5731   24.4451 C   0  0  0  0  0  0  0  0  0  0  0  0
    1.9460   28.5861   23.0481 C   0  0  0  0  0  0  0  0  0  0  0  0
    1.8790   29.7936   22.4286 C   0  0  0  0  0  0  0  0  0  0  0  0
    1.9168   31.0112   23.2122 C   0  0  0  0  0  0  0  0  0  0  0  0
    1.8195   30.9736   24.5792 C   0  0  0  0  0  0  0  0  0  0  0  0
    1.9043   29.7172   25.1943 C   0  0  0  0  0  0  0  0  0  0  0  0
    0.9237   27.3758   28.1537 C   0  0  0  0  0  0  0  0  0  0  0  0
    1.1915   27.1354   26.9567 O   0  0  0  0  0  0  0  0  0  0  0  0
    1.3200   26.6197   29.0531 O   0  0  0  0  0  1  0  0  0  0  0  0
  2  1  1  1
  2 13  1  0
  2  3  1  0
 13 15  1  0
 13 14  2  0
  3  4  1  0
  4  5  4  0
  4 12  4  0
  5  6  4  0
 12  7  4  0
 12 11  4  0
  6  7  4  0
  7  8  4  0
 11 10  4  0
  8  9  4  0
 10  9  4  0
M  CHG  2   1   1  15  -1
M  END
$$$$
