
     RDKit          3D

 15 16  0  0  0  0  0  0  0  0999 V2000
   -0.8320   32.0430   21.8230 N   0  0  0  0  0  4  0  0  0  0  0  0
   -0.3850   30.7120   21.3840 C   0  0  1  0  0  0  0  0  0  0  0  0
    0.7750   30.1780   22.2460 C   0  0  0  0  0  0  0  0  0  0  0  0
    0.5280   30.3010   23.7110 C   0  0  0  0  0  0  0  0  0  0  0  0
    0.8800   31.3480   24.5170 C   0  0  0  0  0  0  0  0  0  0  0  0
    0.4470   31.1230   25.8000 N   0  0  0  0  0  0  0  0  0  0  0  0
   -0.1730   29.9030   25.8510 C   0  0  0  0  0  0  0  0  0  0  0  0
   -0.7580   29.2470   26.9200 C   0  0  0  0  0  0  0  0  0  0  0  0
   -1.3180   28.0270   26.6790 C   0  0  0  0  0  0  0  0  0  0  0  0
   -1.3090   27.4560   25.3990 C   0  0  0  0  0  0  0  0  0  0  0  0
   -0.7230   28.1100   24.3310 C   0  0  0  0  0  0  0  0  0  0  0  0
   -0.1470   29.3590   24.5510 C   0  0  0  0  0  0  0  0  0  0  0  0
   -1.5990   29.7870   21.4360 C   0  0  0  0  0  0  0  0  0  0  0  0
   -2.6740   30.1930   21.9190 O   0  0  0  0  0  0  0  0  0  0  0  0
   -1.5430   28.6370   20.9800 O   0  0  0  0  0  1  0  0  0  0  0  0
  2  1  1  1
  2 13  1  0
  2  3  1  0
 13 15  1  0
 13 14  2  0
  3  4  1  0
  4  5  2  0
  4 12  1  0
  5  6  1  0
 12  7  2  0
 12 11  1  0
  6  7  1  0
  7  8  1  0
 11 10  2  0
  8  9  2  0
 10  9  1  0
M  CHG  2   1   1  15  -1
M  END
$$$$
