
     RDKit          3D

 35 37  0  0  0  0  0  0  0  0999 V2000
   46.7492   15.4373  -10.6739 N   0  0  0  0  0  0  0  0  0  0  0  0
   47.4018   16.5648  -10.2672 C   0  0  0  0  0  0  0  0  0  0  0  0
   47.2802   16.8811   -8.9458 N   0  0  0  0  0  0  0  0  0  0  0  0
   47.5581   18.1414   -8.5845 C   0  0  0  0  0  0  0  0  0  0  0  0
   47.9896   19.1504   -9.3082 N   0  0  0  0  0  0  0  0  0  0  0  0
   48.3622   18.7091  -10.5359 C   0  0  0  0  0  0  0  0  0  0  0  0
   48.0061   17.5054  -11.0748 C   0  0  0  0  0  0  0  0  0  0  0  0
   48.6805   17.3153  -12.3206 N   0  0  0  0  0  0  0  0  0  0  0  0
   49.4678   18.3592  -12.4071 C   0  0  0  0  0  0  0  0  0  0  0  0
   49.5006   19.0894  -11.1895 N   0  0  0  0  0  0  0  0  0  0  0  0
   50.7234   19.6211  -10.5814 C   0  0  1  0  0  0  0  0  0  0  0  0
   50.5130   19.6542   -9.2084 O   0  0  0  0  0  0  0  0  0  0  0  0
   51.3007   18.6249   -8.5403 C   0  0  1  0  0  0  0  0  0  0  0  0
   50.4864   17.3492   -8.5560 C   0  0  0  0  0  0  0  0  0  0  0  0
   51.3609   16.2347   -8.9227 O   0  0  0  0  0  0  0  0  0  0  0  0
   50.8139   14.7521   -8.8528 P   0  0  2  0  0  0  0  0  0  0  0  0
   51.3680   13.9527   -9.9493 O   0  0  0  0  0  0  0  0  0  0  0  0
   49.3306   14.7301   -8.6847 O   0  0  0  0  0  0  0  0  0  0  0  0
   51.5175   14.2355   -7.4982 O   0  0  0  0  0  0  0  0  0  0  0  0
   53.0294   13.3137   -7.0623 P   0  0  1  0  0  0  0  0  0  0  0  0
   53.7593   12.7654   -8.2675 O   0  0  0  0  0  0  0  0  0  0  0  0
   53.8055   14.3272   -6.2861 O   0  0  0  0  0  0  0  0  0  0  0  0
   52.5272   12.1799   -6.1583 O   0  0  0  0  0  0  0  0  0  0  0  0
   52.5889   18.6090   -9.4654 C   0  0  1  0  0  0  0  0  0  0  0  0
   53.3035   17.3530   -9.3040 O   0  0  0  0  0  0  0  0  0  0  0  0
   52.9779   15.6943   -9.6499 P   0  0  2  0  0  0  0  0  0  0  0  0
   52.4546   15.5981  -11.0490 O   0  0  0  0  0  0  0  0  0  0  0  0
   52.0788   15.2345   -8.6291 O   0  0  0  0  0  0  0  0  0  0  0  0
   54.3656   15.0110   -9.4653 O   0  0  0  0  0  0  0  0  0  0  0  0
   55.2767   14.0489   -8.2270 P   0  0  2  0  0  0  0  0  0  0  0  0
   56.1286   13.0175   -8.9643 O   0  0  0  0  0  0  0  0  0  0  0  0
   54.2816   13.4189   -7.2749 O   0  0  0  0  0  0  0  0  0  0  0  0
   56.1314   15.1161   -7.5426 O   0  0  0  0  0  0  0  0  0  0  0  0
   51.9855   18.7700  -10.8610 C   0  0  2  0  0  0  0  0  0  0  0  0
   52.8964   19.4083  -11.7206 O   0  0  0  0  0  0  0  0  0  0  0  0
 26 29  1  0
 29 30  1  0
  9  8  4  0
 10  9  4  0
 11 34  1  0
 11 10  1  1
 12 11  1  0
 30 32  1  1
 24 34  1  0
 34 35  1  1
  2  3  4  0
  4  3  4  0
 13 24  1  0
 24 25  1  6
 13 14  1  1
 13 12  1  0
  5  4  4  0
  6  5  4  0
 15 14  1  0
 30 33  1  0
 30 31  2  0
  7  8  4  0
 26 27  2  0
 16 15  1  0
 10  6  4  0
  2  1  1  0
  7  2  4  0
  6  7  4  0
 25 26  1  0
 20 22  1  6
 20 23  1  0
 20 21  2  0
 16 17  2  0
 16 18  1  6
 26 28  1  6
 19 16  1  0
 19 20  1  0
M  END
$$$$
