
     RDKit          3D

 35 37  0  0  0  0  0  0  0  0999 V2000
   54.1960   23.5850  -34.8340 N   0  0  0  0  0  0  0  0  0  0  0  0
   54.9180   24.6940  -34.6870 C   0  0  0  0  0  0  0  0  0  0  0  0
   55.2630   25.3850  -35.7950 N   0  0  0  0  0  0  0  0  0  0  0  0
   55.9760   26.5050  -35.6580 C   0  0  0  0  0  0  0  0  0  0  0  0
   56.4260   27.0790  -34.5400 N   0  0  0  0  0  0  0  0  0  0  0  0
   56.0750   26.3740  -33.4590 C   0  0  0  0  0  0  0  0  0  0  0  0
   55.3390   25.1970  -33.4450 C   0  0  0  0  0  0  0  0  0  0  0  0
   55.1710   24.7460  -32.1440 N   0  0  0  0  0  0  0  0  0  0  0  0
   55.7970   25.6400  -31.4170 C   0  0  0  0  0  0  0  0  0  0  0  0
   56.3640   26.6510  -32.1490 N   0  0  0  0  0  0  0  0  0  0  0  0
   57.1260   27.7880  -31.6340 C   0  0  2  0  0  0  0  0  0  0  0  0
   58.3680   27.3080  -31.1450 O   0  0  0  0  0  0  0  0  0  0  0  0
   58.4840   27.5990  -29.7370 C   0  0  2  0  0  0  0  0  0  0  0  0
   58.0430   26.3970  -28.9400 C   0  0  0  0  0  0  0  0  0  0  0  0
   58.4930   26.5290  -27.5740 O   0  0  0  0  0  0  0  0  0  0  0  0
   57.4610   26.8320  -26.3920 P   0  0  1  0  0  0  0  0  0  0  0  0
   57.0520   28.2510  -26.4610 O   0  0  0  0  0  0  0  0  0  0  0  0
   56.4080   25.7880  -26.3910 O   0  0  0  0  0  0  0  0  0  0  0  0
   58.4100   26.6310  -25.1180 O   0  0  0  0  0  0  0  0  0  0  0  0
   59.8750   27.5050  -24.4270 P   0  0  2  0  0  0  0  0  0  0  0  0
   59.7420   29.0110  -24.4870 O   0  0  0  0  0  0  0  0  0  0  0  0
   60.9620   26.9750  -25.3380 O   0  0  0  0  0  0  0  0  0  0  0  0
   59.9950   26.9820  -23.0100 O   0  0  0  0  0  0  0  0  0  0  0  0
   57.6140   28.8340  -29.5670 C   0  0  1  0  0  0  0  0  0  0  0  0
   58.3230   30.0410  -29.9210 O   0  0  0  0  0  0  0  0  0  0  0  0
   59.0630   31.2770  -28.9340 P   0  0  1  0  0  0  0  0  0  0  0  0
   59.4450   30.7040  -27.6250 O   0  0  0  0  0  0  0  0  0  0  0  0
   60.1120   31.8830  -29.7860 O   0  0  0  0  0  0  0  0  0  0  0  0
   57.8690   32.3300  -28.7600 O   0  0  0  0  0  0  0  0  0  0  0  0
   56.1780   32.3670  -27.9890 P   0  0  2  0  0  0  0  0  0  0  0  0
   56.3170   31.7220  -26.6280 O   0  0  0  0  0  0  0  0  0  0  0  0
   55.1970   31.6410  -28.8850 O   0  0  0  0  0  0  0  0  0  0  0  0
   55.9050   33.8540  -27.9060 O   0  0  0  0  0  0  0  0  0  0  0  0
   56.4310   28.5340  -30.4850 C   0  0  1  0  0  0  0  0  0  0  0  0
   55.8410   29.7410  -30.9570 O   0  0  0  0  0  0  0  0  0  0  0  0
 26 29  1  0
 29 30  1  0
  9  8  2  0
 10  9  1  0
 11 34  1  0
 11 10  1  1
 12 11  1  0
 30 32  1  6
 24 34  1  0
 34 35  1  6
  2  3  1  0
  4  3  2  0
 13 24  1  0
 24 25  1  6
 13 14  1  1
 13 12  1  0
  5  4  1  0
  6  5  2  0
 15 14  1  0
 30 33  1  0
 30 31  2  0
  7  8  1  0
 26 27  2  0
 16 15  1  0
 10  6  1  0
  2  1  1  0
  7  2  2  0
  6  7  1  0
 25 26  1  0
 20 22  1  6
 20 23  1  0
 20 21  2  0
 16 17  2  0
 16 18  1  1
 26 28  1  6
 19 16  1  0
 19 20  1  0
M  END
$$$$
