
     RDKit          3D

 14 14  0  0  0  0  0  0  0  0999 V2000
    5.9522   -7.7428  -25.5686 O   0  0  0  0  0  0  0  0  0  0  0  0
    6.4115   -8.6968  -26.2103 C   0  0  0  0  0  0  0  0  0  0  0  0
    5.5888   -9.2216  -27.1425 O   0  0  0  0  0  0  0  0  0  0  0  0
    4.4787   -9.7844  -26.4595 N   0  0  0  0  0  0  0  0  0  0  0  0
    3.2119   -9.3824  -26.7644 C   0  0  0  0  0  0  0  0  0  0  0  0
    2.9444   -8.1675  -26.6838 O   0  0  0  0  0  0  0  0  0  0  0  0
    2.4302  -10.2149  -27.4466 O   0  0  0  0  0  0  0  0  0  0  0  0
    2.5640  -10.0750  -28.8919 C   0  0  0  0  0  0  0  0  0  0  0  0
    1.6622  -11.0433  -29.4863 C   0  0  0  0  0  0  0  0  0  0  0  0
    2.0794  -12.3781  -29.6530 C   0  0  0  0  0  0  0  0  0  0  0  0
    1.1436  -13.3850  -29.6800 C   0  0  0  0  0  0  0  0  0  0  0  0
   -0.2459  -13.0745  -29.6400 C   0  0  0  0  0  0  0  0  0  0  0  0
   -0.6563  -11.6934  -29.6744 C   0  0  0  0  0  0  0  0  0  0  0  0
    0.3379  -10.6906  -29.6063 C   0  0  0  0  0  0  0  0  0  0  0  0
 11 12  4  0
 10 11  4  0
 13 12  4  0
 14 13  4  0
  9 14  4  0
  9 10  4  0
  8  9  1  0
  7  8  1  0
  4  5  1  0
  5  7  1  0
  5  6  2  0
  3  2  1  0
  2  1  2  0
  4  3  1  0
M  END
$$$$
