
     RDKit          3D

 14 14  0  0  0  0  0  0  0  0999 V2000
   11.5990   -9.6740  -31.1610 O   0  0  0  0  0  0  0  0  0  0  0  0
   10.3650   -9.7000  -31.1290 C   0  0  0  0  0  0  0  0  0  0  0  0
    9.6820  -10.7820  -31.5730 O   0  0  0  0  0  0  0  0  0  0  0  0
    8.2670  -10.4450  -31.3900 N   0  0  0  0  0  0  0  0  0  0  0  0
    7.3780  -11.4410  -31.2560 C   0  0  0  0  0  0  0  0  0  0  0  0
    7.7480  -12.6170  -31.2530 O   0  0  0  0  0  0  0  0  0  0  0  0
    6.0590  -11.1350  -31.0940 O   0  0  0  0  0  0  0  0  0  0  0  0
    5.2010  -11.9240  -31.9370 C   0  0  0  0  0  0  0  0  0  0  0  0
    3.8830  -11.7030  -31.5390 C   0  0  0  0  0  0  0  0  0  0  0  0
    2.8350  -11.9070  -32.4300 C   0  0  0  0  0  0  0  0  0  0  0  0
    1.5250  -11.6780  -32.0060 C   0  0  0  0  0  0  0  0  0  0  0  0
    1.2690  -11.2540  -30.7020 C   0  0  0  0  0  0  0  0  0  0  0  0
    2.3180  -11.0420  -29.8110 C   0  0  0  0  0  0  0  0  0  0  0  0
    3.6230  -11.2720  -30.2340 C   0  0  0  0  0  0  0  0  0  0  0  0
 11 12  2  0
 10 11  1  0
 13 12  1  0
 14 13  2  0
  9 14  1  0
  9 10  2  0
  8  9  1  0
  7  8  1  0
  4  5  1  0
  5  7  1  0
  5  6  2  0
  3  2  1  0
  2  1  2  0
  4  3  1  0
M  END
$$$$
