
     RDKit          3D

 40 43  0  0  0  0  0  0  0  0999 V2000
   73.1726   52.7098   13.7635 C   0  0  0  0  0  0  0  0  0  0  0  0
   73.3477   54.0038   13.0081 C   0  0  0  0  0  0  0  0  0  0  0  0
   72.8190   55.2192   13.6904 C   0  0  2  0  0  0  0  0  0  0  0  0
   73.3819   55.3965   15.0753 C   0  0  0  0  0  0  0  0  0  0  0  0
   71.3057   55.0781   13.7980 C   0  0  0  0  0  0  0  0  0  0  0  0
   70.6661   56.2874   14.3637 N   0  0  0  0  0  0  0  0  0  0  0  0
   70.6618   57.4941   13.5094 C   0  0  0  0  0  0  0  0  0  0  0  0
   71.2983   58.6093   14.2154 C   0  0  1  0  0  0  0  0  0  0  0  0
   70.9853   59.8606   13.5654 O   0  0  0  0  0  0  0  0  0  0  0  0
   70.8764   58.7312   15.6764 C   0  0  2  0  0  0  0  0  0  0  0  0
   69.5085   59.4084   15.8368 C   0  0  0  0  0  0  0  0  0  0  0  0
   69.2489   59.5761   17.3362 C   0  0  0  0  0  0  0  0  0  0  0  0
   68.2283   60.6143   17.7790 C   0  0  0  0  0  0  0  0  0  0  0  0
   68.1778   61.0571   19.2488 C   0  0  0  0  0  0  0  0  0  0  0  0
   68.9920   60.2529   20.2778 C   0  0  0  0  0  0  0  0  0  0  0  0
   69.9745   59.1967   19.8534 C   0  0  0  0  0  0  0  0  0  0  0  0
   70.0758   58.7936   18.3519 C   0  0  0  0  0  0  0  0  0  0  0  0
   71.8089   59.5282   16.4139 N   0  0  0  0  0  0  0  0  0  0  0  0
   72.9078   58.9270   17.1512 C   0  0  0  0  0  0  0  0  0  0  0  0
   72.8558   57.7244   17.5080 O   0  0  0  0  0  0  0  0  0  0  0  0
   73.6849   59.8070   17.8741 O   0  0  0  0  0  0  0  0  0  0  0  0
   74.4401   59.3645   19.0423 C   0  0  1  0  0  0  0  0  0  0  0  0
   75.6719   59.6641   18.8347 C   0  0  0  0  0  0  0  0  0  0  0  0
   75.6647   61.1614   18.9620 O   0  0  0  0  0  0  0  0  0  0  0  0
   74.7167   61.4062   20.1215 C   0  0  1  0  0  0  0  0  0  0  0  0
   73.6269   62.5564   19.7262 O   0  0  0  0  0  0  0  0  0  0  0  0
   72.4653   61.9895   19.5592 C   0  0  0  0  0  0  0  0  0  0  0  0
   72.5569   60.6939   20.2917 C   0  0  0  0  0  0  0  0  0  0  0  0
   74.1048   60.3487   20.2989 C   0  0  1  0  0  0  0  0  0  0  0  0
   69.2786   56.0150   15.2857 S   0  0  2  0  0  0  0  0  0  0  0  0
   68.3761   57.1502   15.2053 O   0  0  0  0  0  0  0  0  0  0  0  0
   69.6314   55.8407   16.6649 O   0  0  0  0  0  0  0  0  0  0  0  0
   68.5017   54.5672   14.6536 C   0  0  0  0  0  0  0  0  0  0  0  0
   67.7483   53.6476   15.6048 C   0  0  0  0  0  0  0  0  0  0  0  0
   66.9145   52.5341   15.0798 C   0  0  0  0  0  0  0  0  0  0  0  0
   66.9215   52.2433   13.5682 C   0  0  0  0  0  0  0  0  0  0  0  0
   66.5055   50.8559   13.1246 C   0  0  0  0  0  0  0  0  0  0  0  0
   65.1088   50.8491   13.3031 O   0  0  0  0  0  0  0  0  0  0  0  0
   67.5807   53.2340   12.6136 C   0  0  0  0  0  0  0  0  0  0  0  0
   68.3797   54.3143   13.1257 C   0  0  0  0  0  0  0  0  0  0  0  0
 37 38  1  0
 36 37  1  0
 35 36  4  0
 39 36  4  0
 34 35  4  0
 33 34  4  0
 33 40  4  0
 30 33  1  0
 40 39  4  0
 30 31  2  0
 30 32  2  0
 30  6  1  6
  6  5  1  0
  7  6  1  0
  5  3  1  0
  3  4  1  1
  3  2  1  0
  2  1  1  0
  8  7  1  0
  8  9  1  6
 10  8  1  0
 10 18  1  0
 10 11  1  6
 18 19  1  0
 19 20  2  0
 19 21  1  0
 22 21  1  6
 22 23  1  0
 22 29  1  0
 23 24  1  0
 25 24  1  6
 25 26  1  0
 29 25  1  0
 27 26  1  0
 28 27  1  0
 29 28  1  6
 12 11  1  0
 13 14  4  0
 13 12  4  0
 14 15  4  0
 15 16  4  0
 16 17  4  0
 17 12  4  0
M  END
$$$$
