
     RDKit          3D

 41 44  0  0  0  0  0  0  0  0999 V2000
   73.4350   52.1700   13.6580 C   0  0  0  0  0  0  0  0  0  0  0  0
   73.7610   53.6350   13.3990 C   0  0  0  0  0  0  0  0  0  0  0  0
   72.9870   54.5630   14.3830 C   0  0  2  0  0  0  0  0  0  0  0  0
   73.5640   54.4810   15.7780 C   0  0  0  0  0  0  0  0  0  0  0  0
   71.5220   54.1570   14.3900 C   0  0  0  0  0  0  0  0  0  0  0  0
   70.6980   55.2070   15.0920 N   0  0  0  0  0  0  0  0  0  0  0  0
   70.3680   56.5350   14.3580 C   0  0  0  0  0  0  0  0  0  0  0  0
   71.2510   57.6540   14.9320 C   0  0  1  0  0  0  0  0  0  0  0  0
   71.1010   58.7980   14.1760 O   0  0  0  0  0  0  0  0  0  0  0  0
   70.8580   57.9580   16.3780 C   0  0  2  0  0  0  0  0  0  0  0  0
   69.4860   58.6280   16.4450 C   0  0  0  0  0  0  0  0  0  0  0  0
   69.2700   59.1020   17.9010 C   0  0  0  0  0  0  0  0  0  0  0  0
   68.9730   58.0630   18.9870 C   0  0  0  0  0  0  0  0  0  0  0  0
   68.7620   58.5140   20.4370 C   0  0  0  0  0  0  0  0  0  0  0  0
   68.8490   59.9820   20.7880 C   0  0  0  0  0  0  0  0  0  0  0  0
   69.1500   61.0140   19.7020 C   0  0  0  0  0  0  0  0  0  0  0  0
   69.3630   60.5600   18.2470 C   0  0  0  0  0  0  0  0  0  0  0  0
   71.8200   58.9220   16.9040 N   0  0  0  0  0  0  0  0  0  0  0  0
   72.8080   58.5720   17.9430 C   0  0  0  0  0  0  0  0  0  0  0  0
   72.8350   57.5170   18.4830 O   0  0  0  0  0  0  0  0  0  0  0  0
   73.7110   59.6140   18.2380 O   0  0  0  0  0  0  0  0  0  0  0  0
   74.4800   59.5630   19.4450 C   0  0  1  0  0  0  0  0  0  0  0  0
   75.9450   60.1900   19.0330 C   0  0  0  0  0  0  0  0  0  0  0  0
   75.6900   61.4900   18.8630 O   0  0  0  0  0  0  0  0  0  0  0  0
   74.6330   61.8160   19.9580 C   0  0  1  0  0  0  0  0  0  0  0  0
   73.6940   62.5010   19.4870 O   0  0  0  0  0  0  0  0  0  0  0  0
   72.3040   61.6660   19.6550 C   0  0  0  0  0  0  0  0  0  0  0  0
   72.5560   60.6100   20.3970 C   0  0  0  0  0  0  0  0  0  0  0  0
   74.0420   60.4020   20.3720 C   0  0  1  0  0  0  0  0  0  0  0  0
   69.4850   54.5740   16.1450 S   0  0  1  0  0  0  0  0  0  0  0  0
   70.0710   53.8680   17.2670 O   0  0  0  0  0  0  0  0  0  0  0  0
   68.6550   55.6370   16.7440 O   0  0  0  0  0  0  0  0  0  0  0  0
   68.4880   53.4730   15.1330 C   0  0  0  0  0  0  0  0  0  0  0  0
   68.7990   51.9550   15.1610 C   0  0  0  0  0  0  0  0  0  0  0  0
   67.9740   51.0200   14.3050 C   0  0  0  0  0  0  0  0  0  0  0  0
   66.8490   51.5950   13.4450 C   0  0  0  0  0  0  0  0  0  0  0  0
   66.0240   50.6790   12.5650 C   0  0  2  0  0  0  0  0  0  0  0  0
   66.3770   49.2080   12.8030 C   0  0  0  0  0  0  0  0  0  0  0  0
   66.3790   51.0290   11.2730 O   0  0  0  0  0  0  0  0  0  0  0  0
   66.5520   53.1140   13.4090 C   0  0  0  0  0  0  0  0  0  0  0  0
   67.3790   54.0590   14.2650 C   0  0  0  0  0  0  0  0  0  0  0  0
  8 10  1  0
  7  8  1  0
  8  9  1  6
 10 11  1  6
 10 18  1  0
 18 19  1  0
 19 20  2  0
 19 21  1  0
 22 23  1  0
 22 29  1  0
 22 21  1  6
 23 24  1  0
 29 25  1  0
 25 24  1  6
 25 26  1  0
 28 27  1  0
 27 26  1  0
 11 12  1  0
 35 36  1  0
 40 36  1  0
 36 37  1  0
 34 35  1  0
 33 34  1  0
 33 41  1  0
 30 33  1  0
 41 40  1  0
  5  3  1  0
  6  5  1  0
  6  7  1  0
 29 28  1  6
 12 13  2  0
 12 17  1  0
 13 14  1  0
 14 15  2  0
 16 15  1  0
 17 16  2  0
 37 38  1  1
  2  1  1  0
  3  2  1  0
  3  4  1  1
 37 39  1  0
 30  6  1  6
 30 31  2  0
 30 32  2  0
M  END
$$$$
