
     RDKit          3D

 41 44  0  0  0  0  0  0  0  0999 V2000
   74.2977   52.7353   13.3716 C   0  0  0  0  0  0  0  0  0  0  0  0
   73.9079   54.1688   13.1905 C   0  0  0  0  0  0  0  0  0  0  0  0
   72.8750   54.5601   14.3384 C   0  0  1  0  0  0  0  0  0  0  0  0
   73.3956   55.7780   15.0918 C   0  0  0  0  0  0  0  0  0  0  0  0
   71.5103   54.8747   13.7377 C   0  0  0  0  0  0  0  0  0  0  0  0
   70.9280   56.0818   14.3682 N   0  0  0  0  0  0  0  0  0  0  0  0
   70.6899   57.3614   13.5139 C   0  0  0  0  0  0  0  0  0  0  0  0
   71.3822   58.5323   14.2579 C   0  0  1  0  0  0  0  0  0  0  0  0
   70.9712   59.7259   13.6145 O   0  0  0  0  0  0  0  0  0  0  0  0
   70.8776   58.5916   15.7012 C   0  0  2  0  0  0  0  0  0  0  0  0
   69.4923   59.2539   15.8626 C   0  0  0  0  0  0  0  0  0  0  0  0
   69.3821   59.5574   17.3390 C   0  0  0  0  0  0  0  0  0  0  0  0
   69.2309   61.0246   17.7989 C   0  0  0  0  0  0  0  0  0  0  0  0
   69.2638   61.3454   19.2902 C   0  0  0  0  0  0  0  0  0  0  0  0
   69.2348   60.2214   20.3271 C   0  0  0  0  0  0  0  0  0  0  0  0
   69.2599   58.7572   19.8388 C   0  0  0  0  0  0  0  0  0  0  0  0
   69.2923   58.4601   18.3471 C   0  0  0  0  0  0  0  0  0  0  0  0
   71.7881   59.3820   16.4600 N   0  0  0  0  0  0  0  0  0  0  0  0
   72.9193   58.8127   17.2790 C   0  0  0  0  0  0  0  0  0  0  0  0
   72.8000   57.6813   17.7070 O   0  0  0  0  0  0  0  0  0  0  0  0
   73.7079   59.7410   17.9599 O   0  0  0  0  0  0  0  0  0  0  0  0
   74.3037   59.3873   19.2011 C   0  0  1  0  0  0  0  0  0  0  0  0
   75.8967   59.7498   19.0660 C   0  0  0  0  0  0  0  0  0  0  0  0
   75.9211   61.1017   19.0399 O   0  0  0  0  0  0  0  0  0  0  0  0
   74.8348   61.4904   20.0425 C   0  0  1  0  0  0  0  0  0  0  0  0
   74.0859   62.4386   19.6105 O   0  0  0  0  0  0  0  0  0  0  0  0
   72.5721   61.9139   19.4805 C   0  0  0  0  0  0  0  0  0  0  0  0
   72.4811   60.7484   20.1043 C   0  0  0  0  0  0  0  0  0  0  0  0
   73.9120   60.2022   20.1951 C   0  0  1  0  0  0  0  0  0  0  0  0
   69.7188   55.7462   15.5271 S   0  0  1  0  0  0  0  0  0  0  0  0
   70.2682   55.6566   16.8890 O   0  0  0  0  0  0  0  0  0  0  0  0
   68.6536   56.7934   15.6292 O   0  0  0  0  0  0  0  0  0  0  0  0
   68.9760   54.1556   15.0399 C   0  0  0  0  0  0  0  0  0  0  0  0
   69.5658   53.4443   13.8481 C   0  0  0  0  0  0  0  0  0  0  0  0
   68.6409   52.6367   12.9718 C   0  0  0  0  0  0  0  0  0  0  0  0
   67.2115   52.2517   13.5250 C   0  0  0  0  0  0  0  0  0  0  0  0
   66.4563   51.0887   12.9266 C   0  0  1  0  0  0  0  0  0  0  0  0
   67.4357   50.0008   12.3787 C   0  0  0  0  0  0  0  0  0  0  0  0
   65.8467   50.5951   14.0348 O   0  0  0  0  0  0  0  0  0  0  0  0
   66.6946   52.9537   14.7784 C   0  0  0  0  0  0  0  0  0  0  0  0
   67.5984   53.7912   15.6220 C   0  0  0  0  0  0  0  0  0  0  0  0
  8 10  1  0
  7  8  1  0
  8  9  1  6
 10 11  1  6
 10 18  1  0
 18 19  1  0
 19 20  2  0
 19 21  1  0
 22 23  1  0
 22 29  1  0
 22 21  1  6
 23 24  1  0
 29 25  1  0
 25 24  1  6
 25 26  1  0
 28 27  1  0
 27 26  1  0
 11 12  1  0
 35 36  1  0
 40 36  1  0
 36 37  1  0
 34 35  1  0
 33 34  1  0
 33 41  1  0
 30 33  1  0
 41 40  1  0
  5  3  1  0
  6  5  1  0
  6  7  1  0
 29 28  1  6
 12 13  4  0
 12 17  4  0
 13 14  4  0
 14 15  4  0
 16 15  4  0
 17 16  4  0
 37 38  1  6
  2  1  1  0
  3  2  1  0
  3  4  1  1
 37 39  1  0
 30  6  1  6
 30 31  2  0
 30 32  2  0
M  END
$$$$
