
     RDKit          3D

 41 44  0  0  0  0  0  0  0  0999 V2000
   73.6400   52.0700   14.0650 C   0  0  0  0  0  0  0  0  0  0  0  0
   73.5360   53.4550   13.3910 C   0  0  0  0  0  0  0  0  0  0  0  0
   72.8400   54.4710   14.3110 C   0  0  2  0  0  0  0  0  0  0  0  0
   73.4180   54.4740   15.7300 C   0  0  0  0  0  0  0  0  0  0  0  0
   71.3450   54.1220   14.3040 C   0  0  0  0  0  0  0  0  0  0  0  0
   70.5560   55.1700   15.0140 N   0  0  0  0  0  0  0  0  0  0  0  0
   70.1890   56.4460   14.3350 C   0  0  0  0  0  0  0  0  0  0  0  0
   71.1040   57.5610   14.9010 C   0  0  1  0  0  0  0  0  0  0  0  0
   70.9580   58.7350   14.1710 O   0  0  0  0  0  0  0  0  0  0  0  0
   70.7160   57.8600   16.3420 C   0  0  2  0  0  0  0  0  0  0  0  0
   69.3680   58.5830   16.3740 C   0  0  0  0  0  0  0  0  0  0  0  0
   69.1450   59.0290   17.8360 C   0  0  0  0  0  0  0  0  0  0  0  0
   68.7900   57.9750   18.8690 C   0  0  0  0  0  0  0  0  0  0  0  0
   68.5740   58.3780   20.3280 C   0  0  0  0  0  0  0  0  0  0  0  0
   68.7130   59.8370   20.7330 C   0  0  0  0  0  0  0  0  0  0  0  0
   69.0820   60.8940   19.6880 C   0  0  0  0  0  0  0  0  0  0  0  0
   69.2820   60.4930   18.2320 C   0  0  0  0  0  0  0  0  0  0  0  0
   71.6930   58.7880   16.8960 N   0  0  0  0  0  0  0  0  0  0  0  0
   72.6740   58.4000   17.9200 C   0  0  0  0  0  0  0  0  0  0  0  0
   72.6840   57.3260   18.4660 O   0  0  0  0  0  0  0  0  0  0  0  0
   73.6100   59.4450   18.1720 O   0  0  0  0  0  0  0  0  0  0  0  0
   74.5110   59.3430   19.3560 C   0  0  1  0  0  0  0  0  0  0  0  0
   75.6530   59.7780   18.9810 C   0  0  0  0  0  0  0  0  0  0  0  0
   75.4250   61.3970   18.9080 O   0  0  0  0  0  0  0  0  0  0  0  0
   74.6460   61.6770   19.9130 C   0  0  1  0  0  0  0  0  0  0  0  0
   73.4160   62.5630   19.5050 O   0  0  0  0  0  0  0  0  0  0  0  0
   72.3540   61.7790   19.4600 C   0  0  0  0  0  0  0  0  0  0  0  0
   72.6650   60.5300   20.4470 C   0  0  0  0  0  0  0  0  0  0  0  0
   74.0220   60.3610   20.4190 C   0  0  1  0  0  0  0  0  0  0  0  0
   69.3480   54.5440   16.0690 S   0  0  2  0  0  0  0  0  0  0  0  0
   68.5280   55.6190   16.5930 O   0  0  0  0  0  0  0  0  0  0  0  0
   69.9210   53.7880   17.1660 O   0  0  0  0  0  0  0  0  0  0  0  0
   68.3640   53.4270   15.0720 C   0  0  0  0  0  0  0  0  0  0  0  0
   68.6170   51.9330   15.2060 C   0  0  0  0  0  0  0  0  0  0  0  0
   67.8210   50.9740   14.3520 C   0  0  0  0  0  0  0  0  0  0  0  0
   66.7680   51.5690   13.4310 C   0  0  0  0  0  0  0  0  0  0  0  0
   65.9550   50.6560   12.5460 C   0  0  1  0  0  0  0  0  0  0  0  0
   64.4750   50.9940   12.6860 C   0  0  0  0  0  0  0  0  0  0  0  0
   66.3740   50.9500   11.2540 O   0  0  0  0  0  0  0  0  0  0  0  0
   66.5250   53.0720   13.3020 C   0  0  0  0  0  0  0  0  0  0  0  0
   67.3270   54.0440   14.1460 C   0  0  0  0  0  0  0  0  0  0  0  0
  8 10  1  0
  7  8  1  0
  8  9  1  6
 10 11  1  6
 10 18  1  0
 18 19  1  0
 19 20  2  0
 19 21  1  0
 22 23  1  0
 22 29  1  0
 22 21  1  6
 23 24  1  0
 29 25  1  0
 25 24  1  6
 25 26  1  0
 28 27  1  0
 27 26  1  0
 11 12  1  0
 35 36  2  0
 40 36  1  0
 36 37  1  0
 34 35  1  0
 33 34  2  0
 33 41  1  0
 30 33  1  0
 41 40  2  0
  5  3  1  0
  6  5  1  0
  6  7  1  0
 29 28  1  6
 12 13  2  0
 12 17  1  0
 13 14  1  0
 14 15  2  0
 16 15  1  0
 17 16  2  0
 37 38  1  6
  2  1  1  0
  3  2  1  0
  3  4  1  1
 37 39  1  0
 30  6  1  6
 30 31  2  0
 30 32  2  0
M  END
$$$$
