
     RDKit          3D

 42 45  0  0  0  0  0  0  0  0999 V2000
   74.6530   54.9030   15.7440 C   0  0  0  0  0  0  0  0  0  0  0  0
   73.1090   54.6590   15.5550 C   0  0  0  0  0  0  0  0  0  0  0  0
   72.7190   54.9320   14.0440 C   0  0  1  0  0  0  0  0  0  0  0  0
   73.4460   53.9410   13.0870 C   0  0  0  0  0  0  0  0  0  0  0  0
   73.1650   52.4770   13.4650 C   0  0  0  0  0  0  0  0  0  0  0  0
   71.1550   54.8100   13.8590 C   0  0  0  0  0  0  0  0  0  0  0  0
   70.4480   55.8080   14.6870 N   0  0  0  0  0  0  0  0  0  0  0  0
   70.1120   57.1200   14.0460 C   0  0  0  0  0  0  0  0  0  0  0  0
   71.0240   58.1910   14.6290 C   0  0  1  0  0  0  0  0  0  0  0  0
   70.9050   59.3850   13.8780 O   0  0  0  0  0  0  0  0  0  0  0  0
   70.6620   58.4720   16.0850 C   0  0  2  0  0  0  0  0  0  0  0  0
   69.3050   59.1600   16.2080 C   0  0  0  0  0  0  0  0  0  0  0  0
   69.0910   59.5860   17.7260 C   0  0  0  0  0  0  0  0  0  0  0  0
   69.1660   61.0650   18.1300 C   0  0  0  0  0  0  0  0  0  0  0  0
   68.9560   61.4730   19.6050 C   0  0  0  0  0  0  0  0  0  0  0  0
   68.6700   60.3990   20.6650 C   0  0  0  0  0  0  0  0  0  0  0  0
   68.5940   58.9190   20.2590 C   0  0  0  0  0  0  0  0  0  0  0  0
   68.8040   58.5120   18.7870 C   0  0  0  0  0  0  0  0  0  0  0  0
   71.6690   59.4240   16.6020 N   0  0  0  0  0  0  0  0  0  0  0  0
   72.7090   59.0330   17.5990 C   0  0  0  0  0  0  0  0  0  0  0  0
   72.7300   57.9480   18.1050 O   0  0  0  0  0  0  0  0  0  0  0  0
   73.6580   60.0310   17.9150 O   0  0  0  0  0  0  0  0  0  0  0  0
   74.4670   59.8890   19.1700 C   0  0  1  0  0  0  0  0  0  0  0  0
   75.8840   60.4670   18.8400 C   0  0  0  0  0  0  0  0  0  0  0  0
   75.6900   61.8300   18.8290 O   0  0  0  0  0  0  0  0  0  0  0  0
   74.6690   62.0660   19.9000 C   0  0  1  0  0  0  0  0  0  0  0  0
   73.5550   62.9480   19.4350 O   0  0  0  0  0  0  0  0  0  0  0  0
   72.4310   62.1480   19.3210 C   0  0  0  0  0  0  0  0  0  0  0  0
   72.7010   60.8850   20.2010 C   0  0  0  0  0  0  0  0  0  0  0  0
   74.0310   60.6630   20.1750 C   0  0  1  0  0  0  0  0  0  0  0  0
   69.2410   55.1590   15.7880 S   0  0  1  0  0  0  0  0  0  0  0  0
   69.8600   54.4100   16.9210 O   0  0  0  0  0  0  0  0  0  0  0  0
   68.4590   56.2150   16.4480 O   0  0  0  0  0  0  0  0  0  0  0  0
   68.1800   54.0430   14.7290 C   0  0  0  0  0  0  0  0  0  0  0  0
   68.3860   52.5340   14.8000 C   0  0  0  0  0  0  0  0  0  0  0  0
   67.5290   51.6150   13.9200 C   0  0  0  0  0  0  0  0  0  0  0  0
   66.4800   52.2320   12.9740 C   0  0  0  0  0  0  0  0  0  0  0  0
   65.6230   51.3380   12.0930 C   0  0  1  0  0  0  0  0  0  0  0  0
   64.1340   51.6670   12.3560 C   0  0  0  0  0  0  0  0  0  0  0  0
   65.9440   51.5970   10.7770 O   0  0  0  0  0  0  0  0  0  0  0  0
   66.2840   53.7650   12.8990 C   0  0  0  0  0  0  0  0  0  0  0  0
   67.1290   54.6730   13.7650 C   0  0  0  0  0  0  0  0  0  0  0  0
  3  4  1  6
  4  5  1  0
  8  9  1  0
  7  8  1  0
 19 20  1  0
 20 21  2  0
 20 22  1  0
 23 24  1  0
 24 25  1  0
 30 29  1  6
 23 30  1  0
 30 26  1  0
 29 28  1  0
 36 37  1  0
 41 37  1  0
 37 38  1  0
 35 36  1  0
 34 35  1  0
 34 42  1  0
 31 34  1  0
 42 41  1  0
  6  3  1  0
  7  6  1  0
  3  2  1  0
  2  1  1  0
  9 11  1  0
  9 10  1  6
 11 12  1  6
 11 19  1  0
 23 22  1  6
 26 25  1  6
 26 27  1  0
 27 28  1  0
 12 13  1  0
 13 14  1  0
 13 18  1  0
 14 15  1  0
 15 16  1  0
 17 16  1  0
 18 17  1  0
 38 39  1  6
 38 40  1  0
 31  7  1  6
 31 32  2  0
 31 33  2  0
M  END
$$$$
