
     RDKit          3D

 42 45  0  0  0  0  0  0  0  0999 V2000
   73.7650   52.2850   14.4030 C   0  0  0  0  0  0  0  0  0  0  0  0
   73.8880   53.6760   13.8240 C   0  0  0  0  0  0  0  0  0  0  0  0
   73.0430   54.6880   14.5940 C   0  0  2  0  0  0  0  0  0  0  0  0
   73.4870   54.7640   16.0650 C   0  0  0  0  0  0  0  0  0  0  0  0
   71.5660   54.3020   14.4930 C   0  0  0  0  0  0  0  0  0  0  0  0
   70.6940   55.3180   15.1850 N   0  0  0  0  0  0  0  0  0  0  0  0
   70.3370   56.5580   14.4410 C   0  0  0  0  0  0  0  0  0  0  0  0
   71.2310   57.6900   14.9600 C   0  0  1  0  0  0  0  0  0  0  0  0
   71.0950   58.8240   14.1530 O   0  0  0  0  0  0  0  0  0  0  0  0
   70.8490   58.0460   16.4150 C   0  0  2  0  0  0  0  0  0  0  0  0
   69.4570   58.6830   16.4720 C   0  0  0  0  0  0  0  0  0  0  0  0
   69.2260   59.1460   17.9220 C   0  0  0  0  0  0  0  0  0  0  0  0
   68.8790   58.0910   19.0330 C   0  0  0  0  0  0  0  0  0  0  0  0
   68.6610   58.5480   20.4720 C   0  0  0  0  0  0  0  0  0  0  0  0
   68.7800   60.0500   20.8320 C   0  0  0  0  0  0  0  0  0  0  0  0
   69.1260   61.0960   19.7230 C   0  0  0  0  0  0  0  0  0  0  0  0
   69.3530   60.6360   18.2760 C   0  0  0  0  0  0  0  0  0  0  0  0
   71.7830   59.0090   16.8920 N   0  0  0  0  0  0  0  0  0  0  0  0
   72.7680   58.6930   17.9530 C   0  0  0  0  0  0  0  0  0  0  0  0
   72.7940   57.6460   18.5170 O   0  0  0  0  0  0  0  0  0  0  0  0
   73.7050   59.7820   18.2530 O   0  0  0  0  0  0  0  0  0  0  0  0
   74.4840   59.6910   19.4570 C   0  0  1  0  0  0  0  0  0  0  0  0
   75.9490   60.3190   19.0670 C   0  0  0  0  0  0  0  0  0  0  0  0
   75.6830   61.6130   18.9120 O   0  0  0  0  0  0  0  0  0  0  0  0
   74.6460   61.9090   20.0140 C   0  0  1  0  0  0  0  0  0  0  0  0
   73.7010   62.6110   19.5730 O   0  0  0  0  0  0  0  0  0  0  0  0
   72.3030   61.7610   19.7140 C   0  0  0  0  0  0  0  0  0  0  0  0
   72.5530   60.6980   20.4380 C   0  0  0  0  0  0  0  0  0  0  0  0
   74.0500   60.4890   20.4010 C   0  0  1  0  0  0  0  0  0  0  0  0
   69.4550   54.6490   16.2110 S   0  0  2  0  0  0  0  0  0  0  0  0
   68.5420   55.6790   16.7140 O   0  0  0  0  0  0  0  0  0  0  0  0
   70.0250   54.0130   17.4170 O   0  0  0  0  0  0  0  0  0  0  0  0
   68.6270   53.4280   15.1350 C   0  0  2  0  0  0  0  0  0  0  0  0
   69.0600   51.9760   15.2300 C   0  0  0  0  0  0  0  0  0  0  0  0
   68.3970   50.9340   14.3150 C   0  0  0  0  0  0  0  0  0  0  0  0
   67.3060   51.3970   13.3160 C   0  0  0  0  0  0  0  0  0  0  0  0
   66.6660   50.3510   12.4070 C   0  0  2  0  0  0  0  0  0  0  0  0
   66.4990   50.9290   11.1400 O   0  0  0  0  0  0  0  0  0  0  0  0
   65.3480   49.9190   12.9730 C   0  0  0  0  0  0  0  0  0  0  0  0
   64.7620   49.0050   12.0960 O   0  0  0  0  0  0  0  0  0  0  0  0
   66.8820   52.8510   13.2120 C   0  0  0  0  0  0  0  0  0  0  0  0
   67.5520   53.9000   14.1260 C   0  0  0  0  0  0  0  0  0  0  0  0
  8 10  1  0
  7  8  1  0
  8  9  1  6
 10 11  1  6
 10 18  1  0
 18 19  1  0
 19 20  2  0
 19 21  1  0
 22 23  1  0
 22 29  1  0
 22 21  1  6
 23 24  1  0
 29 25  1  0
 25 24  1  6
 25 26  1  0
 28 27  1  0
 27 26  1  0
 11 12  1  0
 35 36  1  0
 41 36  1  0
 36 37  1  0
 34 35  1  0
 33 34  1  6
 33 42  1  0
 30 33  1  0
 42 41  1  0
  5  3  1  0
  6  5  1  0
  6  7  1  0
 29 28  1  6
 12 13  1  0
 12 17  1  0
 13 14  1  0
 14 15  1  0
 16 15  1  0
 17 16  1  0
 37 39  1  0
 39 40  1  0
  2  1  1  0
  3  2  1  0
  3  4  1  1
 37 38  1  6
 30  6  1  6
 30 31  2  0
 30 32  2  0
M  END
$$$$
