
     RDKit          3D

 33 36  0  0  0  0  0  0  0  0999 V2000
    2.3150   72.0530  -27.9750 C   0  0  0  0  0  0  0  0  0  0  0  0
    2.0030   72.0420  -29.5350 C   0  0  0  0  0  0  0  0  0  0  0  0
    0.5370   72.4700  -29.6960 C   0  0  0  0  0  0  0  0  0  0  0  0
   -0.3420   71.7510  -29.4530 O   0  0  0  0  0  0  0  0  0  0  0  0
    0.1970   73.7810  -30.1710 N   0  0  0  0  0  0  0  0  0  0  0  0
   -1.0510   74.5240  -30.4830 C   0  0  0  0  0  0  0  0  0  0  0  0
   -0.2490   75.6870  -30.9460 C   0  0  2  0  0  0  0  0  0  0  0  0
   -0.0400   75.8830  -32.3550 N   0  0  0  0  0  0  0  0  0  0  0  0
   -0.8880   76.6670  -33.1860 C   0  0  0  0  0  0  0  0  0  0  0  0
   -1.8420   77.1780  -32.7460 O   0  0  0  0  0  0  0  0  0  0  0  0
   -0.4790   76.7500  -34.6450 C   0  0  0  0  0  0  0  0  0  0  0  0
   -0.9950   77.8850  -35.2600 O   0  0  0  0  0  0  0  0  0  0  0  0
   -2.2770   77.6960  -35.7660 C   0  0  0  0  0  0  0  0  0  0  0  0
   -2.9660   76.5190  -35.5160 C   0  0  0  0  0  0  0  0  0  0  0  0
   -4.2400   76.3410  -36.0180 C   0  0  0  0  0  0  0  0  0  0  0  0
   -4.8230   77.3520  -36.7670 C   0  0  0  0  0  0  0  0  0  0  0  0
   -6.6130   77.1480  -37.4770 Br  0  0  0  0  0  0  0  0  0  0  0  0
   -4.1340   78.5270  -36.9990 C   0  0  0  0  0  0  0  0  0  0  0  0
   -2.8620   78.6910  -36.5170 C   0  0  0  0  0  0  0  0  0  0  0  0
   -2.1150   79.9920  -36.7640 C   0  0  0  0  0  0  0  0  0  0  0  0
   -1.6210   80.2250  -37.8000 O   0  0  0  0  0  0  0  0  0  0  0  0
   -2.0440   80.9290  -35.6710 N   0  0  0  0  0  0  0  0  0  0  0  0
   -1.4030   82.2290  -35.6340 C   0  0  0  0  0  0  0  0  0  0  0  0
   -2.0730   82.9400  -34.4370 C   0  0  0  0  0  0  0  0  0  0  0  0
   -2.5030   81.9970  -33.6100 C   0  0  0  0  0  0  0  0  0  0  0  0
   -2.9970   82.2180  -32.1840 C   0  0  0  0  0  0  0  0  0  0  0  0
   -3.5670   81.1760  -31.4840 C   0  0  0  0  0  0  0  0  0  0  0  0
   -4.0100   81.3730  -30.1950 C   0  0  0  0  0  0  0  0  0  0  0  0
   -3.8830   82.6040  -29.6030 C   0  0  0  0  0  0  0  0  0  0  0  0
   -3.3160   83.6450  -30.3020 C   0  0  0  0  0  0  0  0  0  0  0  0
   -2.8750   83.4490  -31.5920 C   0  0  0  0  0  0  0  0  0  0  0  0
   -2.6300   80.7110  -34.3580 C   0  0  0  0  0  0  0  0  0  0  0  0
    0.9660   74.9800  -30.5290 C   0  0  0  0  0  0  0  0  0  0  0  0
  1  2  1  0
  2  3  1  0
  3  4  2  0
  3  5  1  0
  5  6  1  0
  5 33  1  0
  6  7  1  0
  7 33  1  0
  7  8  1  6
  8  9  1  0
  9 10  2  0
  9 11  1  0
 11 12  1  0
 12 13  1  0
 13 14  2  0
 13 19  1  0
 14 15  1  0
 15 16  2  0
 16 17  1  0
 16 18  1  0
 18 19  2  0
 19 20  1  0
 20 21  2  0
 20 22  1  0
 22 23  1  0
 22 32  1  0
 23 24  1  0
 24 25  2  0
 25 32  1  0
 25 26  1  0
 26 27  2  0
 26 31  1  0
 27 28  1  0
 28 29  2  0
 29 30  1  0
 30 31  2  0
M  END
$$$$
