
     RDKit          3D

 35 39  0  0  0  0  0  0  0  0999 V2000
   26.0643  -14.7220   30.3447 C   0  0  0  0  0  0  0  0  0  0  0  0
   25.4757  -14.8442   31.7358 C   0  0  0  0  0  0  0  0  0  0  0  0
   23.9452  -15.1472   31.7175 C   0  0  0  0  0  0  0  0  0  0  0  0
   23.5576  -16.2413   31.5409 O   0  0  0  0  0  0  0  0  0  0  0  0
   23.0987  -14.2135   32.4321 N   0  0  0  0  0  0  0  0  0  0  0  0
   22.3799  -14.6539   33.5213 C   0  0  0  0  0  0  0  0  0  0  0  0
   22.5734  -13.6948   34.7036 C   0  0  0  0  0  0  0  0  0  0  0  0
   22.0156  -12.3783   34.3009 N   0  0  0  0  0  0  0  0  0  0  0  0
   21.7203  -11.5471   35.4756 C   0  0  0  0  0  0  0  0  0  0  0  0
   21.5030  -12.2457   36.5866 N   0  0  0  0  0  0  0  0  0  0  0  0
   22.5286  -12.4780   37.4907 N   0  0  0  0  0  0  0  0  0  0  0  0
   23.6043  -11.7426   37.4223 C   0  0  0  0  0  0  0  0  0  0  0  0
   24.6290  -12.0165   38.2499 C   0  0  0  0  0  0  0  0  0  0  0  0
   25.3418  -13.2511   38.0480 C   0  0  0  0  0  0  0  0  0  0  0  0
   25.5252  -14.0821   39.1476 C   0  0  0  0  0  0  0  0  0  0  0  0
   25.3382  -13.5493   40.4662 C   0  0  0  0  0  0  0  0  0  0  0  0
   24.9635  -12.2525   40.6478 C   0  0  0  0  0  0  0  0  0  0  0  0
   24.7124  -11.4616   39.5197 C   0  0  0  0  0  0  0  0  0  0  0  0
   23.7360  -10.6762   36.4041 C   0  0  0  0  0  0  0  0  0  0  0  0
   24.6037   -9.5484   36.6320 C   0  0  0  0  0  0  0  0  0  0  0  0
   23.9653   -8.3066   36.9597 C   0  0  0  0  0  0  0  0  0  0  0  0
   24.3220   -7.6980   38.1504 C   0  0  0  0  0  0  0  0  0  0  0  0
   23.5969   -7.9747   39.3256 C   0  0  0  0  0  0  0  0  0  0  0  0
   22.4577   -8.7806   39.2728 O   0  0  0  0  0  0  0  0  0  0  0  0
   24.1478   -7.7485   40.5825 C   0  0  0  0  0  0  0  0  0  0  0  0
   25.5247   -7.4704   40.6865 C   0  0  0  0  0  0  0  0  0  0  0  0
   26.2802   -7.2358   39.5359 C   0  0  0  0  0  0  0  0  0  0  0  0
   25.6337   -7.1797   38.3033 C   0  0  0  0  0  0  0  0  0  0  0  0
   26.4020   -6.9882   37.1896 F   0  0  0  0  0  0  0  0  0  0  0  0
   22.6902   -8.0694   36.4164 C   0  0  0  0  0  0  0  0  0  0  0  0
   21.7438   -6.6286   36.8337 Cl  0  0  0  0  0  0  0  0  0  0  0  0
   21.9754   -9.1152   35.7791 C   0  0  0  0  0  0  0  0  0  0  0  0
   22.6531  -10.4285   35.6772 C   0  0  0  0  0  0  0  0  0  0  0  0
   22.8405  -11.8909   33.2040 C   0  0  0  0  0  0  0  0  0  0  0  0
   22.8224  -12.8608   32.0416 C   0  0  0  0  0  0  0  0  0  0  0  0
  1  2  1  0
  2  3  1  0
  3  4  2  0
  3  5  1  0
  5  6  1  0
  5 35  1  0
  6  7  1  0
  7  8  1  0
  8 34  1  0
  8  9  1  0
 34 35  1  0
  9 10  4  0
  9 33  4  0
 10 11  4  0
 11 12  4  0
 12 13  1  0
 12 19  4  0
 13 14  4  0
 13 18  4  0
 14 15  4  0
 15 16  4  0
 16 17  4  0
 17 18  4  0
 19 20  4  0
 19 33  4  0
 20 21  4  0
 21 30  4  0
 21 22  1  0
 30 31  1  0
 30 32  4  0
 32 33  4  0
 22 23  4  0
 22 28  4  0
 23 24  1  0
 23 25  4  0
 25 26  4  0
 26 27  4  0
 27 28  4  0
 28 29  1  0
M  END
$$$$
