
     RDKit          3D

 58 64  0  0  0  0  0  0  0  0999 V2000
  -18.8567   60.4343  -39.9259 C   0  0  0  0  0  0  0  0  0  0  0  0
  -19.1035   61.8820  -39.6923 C   0  0  0  0  0  0  0  0  0  0  0  0
  -20.3997   62.3234  -39.6338 C   0  0  0  0  0  0  0  0  0  0  0  0
  -20.7244   63.6669  -39.5777 C   0  0  0  0  0  0  0  0  0  0  0  0
  -19.6524   64.5797  -39.5049 C   0  0  0  0  0  0  0  0  0  0  0  0
  -19.9317   66.0052  -39.5679 N   0  0  0  0  0  0  0  0  0  0  0  0
  -19.2083   66.9018  -40.4011 C   0  0  0  0  0  0  0  0  0  0  0  0
  -19.8099   67.5612  -41.3406 O   0  0  0  0  0  0  0  0  0  0  0  0
  -17.9848   67.3143  -39.8467 N   0  0  0  0  0  0  0  0  0  0  0  0
  -17.8916   68.1614  -38.6731 C   0  0  2  0  0  0  0  0  0  0  0  0
  -18.6200   67.4870  -37.5449 C   0  0  0  0  0  0  0  0  0  0  0  0
  -18.2344   66.0157  -37.3190 C   0  0  0  0  0  0  0  0  0  0  0  0
  -18.4488   65.0816  -38.3467 C   0  0  0  0  0  0  0  0  0  0  0  0
  -18.6687   63.7409  -37.9681 C   0  0  0  0  0  0  0  0  0  0  0  0
  -19.4816   62.9876  -38.7426 F   0  0  0  0  0  0  0  0  0  0  0  0
  -18.3391   63.2744  -36.6862 C   0  0  0  0  0  0  0  0  0  0  0  0
  -18.0352   64.2062  -35.7380 C   0  0  0  0  0  0  0  0  0  0  0  0
  -18.0161   63.8953  -34.4597 F   0  0  0  0  0  0  0  0  0  0  0  0
  -17.8767   65.5129  -36.0965 C   0  0  0  0  0  0  0  0  0  0  0  0
  -18.6089   69.4224  -39.1360 C   0  0  0  0  0  0  0  0  0  0  0  0
  -19.7759   69.3047  -39.5529 O   0  0  0  0  0  0  0  0  0  0  0  0
  -17.8349   70.6328  -39.3810 N   0  0  0  0  0  0  0  0  0  0  0  0
  -17.9274   71.6224  -40.1324 C   0  0  2  0  0  0  0  0  0  0  0  0
  -18.9331   72.7510  -40.0496 C   0  0  0  0  0  0  0  0  0  0  0  0
  -19.7675   72.8242  -40.9204 O   0  0  0  0  0  0  0  0  0  0  0  0
  -18.5855   73.9323  -39.3114 N   0  0  0  0  0  0  0  0  0  0  0  0
  -19.4295   75.3060  -39.2919 C   0  0  0  0  0  0  0  0  0  0  0  0
  -18.9023   75.9658  -38.1974 C   0  0  0  0  0  0  0  0  0  0  0  0
  -17.4732   75.5453  -38.0628 C   0  0  0  0  0  0  0  0  0  0  0  0
  -17.4946   74.0594  -38.5683 C   0  0  1  0  0  0  0  0  0  0  0  0
  -17.6147   73.2055  -37.3489 C   0  0  0  0  0  0  0  0  0  0  0  0
  -18.6378   72.5974  -37.0409 O   0  0  0  0  0  0  0  0  0  0  0  0
  -16.4230   72.6591  -36.6631 N   0  0  0  0  0  0  0  0  0  0  0  0
  -15.2665   72.6197  -37.6620 C   0  0  0  0  0  0  0  0  0  0  0  0
  -15.9188   72.4303  -39.0036 C   0  0  0  0  0  0  0  0  0  0  0  0
  -16.7776   71.2547  -39.0297 C   0  0  0  0  0  0  0  0  0  0  0  0
  -17.7468   71.0977  -37.8325 C   0  0  0  0  0  0  0  0  0  0  0  0
  -16.9636   71.2536  -36.4951 C   0  0  1  0  0  0  0  0  0  0  0  0
  -15.8054   70.2747  -36.7193 C   0  0  0  0  0  0  0  0  0  0  0  0
  -15.8371   69.3034  -35.8618 O   0  0  0  0  0  0  0  0  0  0  0  0
  -14.9159   70.4221  -37.6360 N   0  0  0  0  0  0  0  0  0  0  0  0
  -14.2612   69.1794  -37.6314 C   0  0  2  0  0  0  0  0  0  0  0  0
  -12.7900   69.5193  -37.5425 C   0  0  0  0  0  0  0  0  0  0  0  0
  -14.5645   68.2790  -38.8121 C   0  0  0  0  0  0  0  0  0  0  0  0
  -15.3553   67.3730  -38.7039 O   0  0  0  0  0  0  0  0  0  0  0  0
  -14.2227   68.8037  -40.0752 N   0  0  0  0  0  0  0  0  0  0  0  0
  -14.2530   68.0718  -41.4752 C   0  0  0  0  0  0  0  0  0  0  0  0
  -13.6303   68.8736  -42.3979 C   0  0  1  0  0  0  0  0  0  0  0  0
  -14.6222   69.4300  -43.4236 C   0  0  0  0  0  0  0  0  0  0  0  0
  -13.0205   70.1463  -41.5469 C   0  0  0  0  0  0  0  0  0  0  0  0
  -13.6283   70.2716  -40.4041 C   0  0  1  0  0  0  0  0  0  0  0  0
  -14.7613   71.2977  -40.5137 C   0  0  0  0  0  0  0  0  0  0  0  0
  -14.4516   72.5341  -40.5657 O   0  0  0  0  0  0  0  0  0  0  0  0
  -16.0360   70.8394  -41.0566 O   0  0  0  0  0  0  0  0  0  0  0  0
  -17.0911   71.7379  -41.3114 C   0  0  2  0  0  0  0  0  0  0  0  0
  -15.8617   71.0233  -40.9349 O   0  0  0  0  0  0  0  0  0  0  0  0
  -18.3415   64.1541  -39.5532 C   0  0  0  0  0  0  0  0  0  0  0  0
  -18.0758   62.8018  -39.6175 C   0  0  0  0  0  0  0  0  0  0  0  0
  7  8  2  0
  7  6  1  0
  9  7  1  0
  6  5  1  0
  5  4  4  0
  5 57  4  0
  4  3  4  0
  3  2  4  0
  2  1  1  0
 58  2  4  0
 57 58  4  0
 20 21  2  0
 20 10  1  0
 22 20  1  0
 10  9  1  0
 14 15  1  0
 17 18  1  0
 10 11  1  6
 11 12  1  0
 12 13  4  0
 12 19  4  0
 14 16  4  0
 17 16  4  0
 13 14  4  0
 19 17  4  0
 23 22  1  6
 24 23  1  0
 23 55  1  0
 24 25  2  0
 26 24  1  0
 55 54  1  6
 55 56  1  0
 54 52  1  0
 30 26  1  0
 26 27  1  0
 31 30  1  0
 30 29  1  1
 31 32  2  0
 33 31  1  0
 29 28  1  0
 28 27  2  0
 39 40  2  0
 38 39  1  0
 39 41  1  0
 33 38  1  0
 33 34  1  0
 38 37  1  6
 37 36  1  0
 34 35  1  0
 35 36  1  0
 41 42  1  0
 42 44  1  0
 42 43  1  1
 44 45  2  0
 44 46  1  0
 52 53  1  0
 52 51  1  0
 52 56  1  0
 46 51  1  0
 46 47  1  0
 51 50  1  6
 50 48  1  0
 47 48  1  0
 48 49  1  1
M  END
$$$$
