
     RDKit          3D

 58 64  0  0  0  0  0  0  0  0999 V2000
  -17.9500   67.6110  -47.0070 C   0  0  0  0  0  0  0  0  0  0  0  0
  -17.8990   67.5240  -45.4980 C   0  0  0  0  0  0  0  0  0  0  0  0
  -17.9090   66.2750  -44.8900 C   0  0  0  0  0  0  0  0  0  0  0  0
  -17.8630   66.1610  -43.5060 C   0  0  0  0  0  0  0  0  0  0  0  0
  -17.8410   67.3160  -42.7480 C   0  0  0  0  0  0  0  0  0  0  0  0
  -17.7160   67.2300  -41.3110 N   0  0  0  0  0  0  0  0  0  0  0  0
  -18.5260   67.9380  -40.3930 C   0  0  0  0  0  0  0  0  0  0  0  0
  -19.4660   68.6290  -40.7440 O   0  0  0  0  0  0  0  0  0  0  0  0
  -18.1450   67.7140  -39.0320 N   0  0  0  0  0  0  0  0  0  0  0  0
  -18.8260   68.2980  -37.9570 C   0  0  1  0  0  0  0  0  0  0  0  0
  -18.5070   67.5540  -36.6820 C   0  0  0  0  0  0  0  0  0  0  0  0
  -19.2590   66.2090  -36.5780 C   0  0  0  0  0  0  0  0  0  0  0  0
  -20.5430   66.1290  -36.0750 C   0  0  0  0  0  0  0  0  0  0  0  0
  -21.2070   64.8930  -36.0150 C   0  0  0  0  0  0  0  0  0  0  0  0
  -22.4380   64.8470  -35.5370 F   0  0  0  0  0  0  0  0  0  0  0  0
  -20.5880   63.7280  -36.4100 C   0  0  0  0  0  0  0  0  0  0  0  0
  -19.3050   63.8210  -36.8960 C   0  0  0  0  0  0  0  0  0  0  0  0
  -18.6650   62.7340  -37.3200 F   0  0  0  0  0  0  0  0  0  0  0  0
  -18.6460   65.0430  -36.9960 C   0  0  0  0  0  0  0  0  0  0  0  0
  -18.2700   69.7220  -37.9100 C   0  0  0  0  0  0  0  0  0  0  0  0
  -17.4170   70.0120  -37.1300 O   0  0  0  0  0  0  0  0  0  0  0  0
  -18.7720   70.7000  -38.8530 N   0  0  0  0  0  0  0  0  0  0  0  0
  -18.2870   72.0240  -38.8790 C   0  0  2  0  0  0  0  0  0  0  0  0
  -19.4000   73.0480  -38.5930 C   0  0  0  0  0  0  0  0  0  0  0  0
  -20.5140   72.8810  -39.0000 O   0  0  0  0  0  0  0  0  0  0  0  0
  -19.0580   74.2270  -37.8420 N   0  0  0  0  0  0  0  0  0  0  0  0
  -20.0410   75.4330  -37.4420 C   0  0  0  0  0  0  0  0  0  0  0  0
  -19.4010   76.1260  -36.4920 C   0  0  0  0  0  0  0  0  0  0  0  0
  -17.9120   75.9430  -36.7460 C   0  0  0  0  0  0  0  0  0  0  0  0
  -17.8550   74.4780  -37.3610 C   0  0  1  0  0  0  0  0  0  0  0  0
  -17.6010   73.5670  -36.1630 C   0  0  0  0  0  0  0  0  0  0  0  0
  -18.4900   73.1370  -35.4660 O   0  0  0  0  0  0  0  0  0  0  0  0
  -16.2600   73.1230  -35.7860 N   0  0  0  0  0  0  0  0  0  0  0  0
  -16.1470   72.3150  -34.5690 C   0  0  0  0  0  0  0  0  0  0  0  0
  -15.4650   73.1980  -33.5490 C   0  0  0  0  0  0  0  0  0  0  0  0
  -14.1790   73.7790  -34.0540 C   0  0  0  0  0  0  0  0  0  0  0  0
  -14.2530   74.4010  -35.4260 C   0  0  0  0  0  0  0  0  0  0  0  0
  -15.0290   73.5610  -36.4410 C   0  0  1  0  0  0  0  0  0  0  0  0
  -14.1930   72.3900  -36.8330 C   0  0  0  0  0  0  0  0  0  0  0  0
  -12.9890   72.5030  -36.9100 O   0  0  0  0  0  0  0  0  0  0  0  0
  -14.8100   71.1120  -37.1150 N   0  0  0  0  0  0  0  0  0  0  0  0
  -13.9720   69.9900  -37.3800 C   0  0  1  0  0  0  0  0  0  0  0  0
  -13.9810   69.2260  -36.0620 C   0  0  0  0  0  0  0  0  0  0  0  0
  -14.3800   69.1260  -38.5330 C   0  0  0  0  0  0  0  0  0  0  0  0
  -14.6410   67.9530  -38.3850 O   0  0  0  0  0  0  0  0  0  0  0  0
  -14.3740   69.7110  -39.8100 N   0  0  0  0  0  0  0  0  0  0  0  0
  -14.7260   69.0500  -41.1570 C   0  0  0  0  0  0  0  0  0  0  0  0
  -14.5700   70.0310  -42.1220 C   0  0  2  0  0  0  0  0  0  0  0  0
  -13.8790   69.5360  -43.3690 C   0  0  0  0  0  0  0  0  0  0  0  0
  -13.6720   71.2460  -41.4590 C   0  0  0  0  0  0  0  0  0  0  0  0
  -14.0410   71.2670  -40.1700 C   0  0  1  0  0  0  0  0  0  0  0  0
  -15.2850   72.1800  -39.9740 C   0  0  0  0  0  0  0  0  0  0  0  0
  -15.1460   73.3320  -39.6260 O   0  0  0  0  0  0  0  0  0  0  0  0
  -16.5530   71.5740  -40.2830 O   0  0  0  0  0  0  0  0  0  0  0  0
  -17.7510   72.3130  -40.2550 C   0  0  2  0  0  0  0  0  0  0  0  0
  -16.3980   71.7430  -40.1690 O   0  0  0  0  0  0  0  0  0  0  0  0
  -17.8050   68.5790  -43.3400 C   0  0  0  0  0  0  0  0  0  0  0  0
  -17.8580   68.6790  -44.7410 C   0  0  0  0  0  0  0  0  0  0  0  0
  7  8  2  0
  7  6  1  0
  9  7  1  0
  6  5  1  0
  5  4  2  0
  5 57  1  0
  4  3  1  0
  3  2  2  0
  2  1  1  0
 58  2  1  0
 57 58  2  0
 20 21  2  0
 20 10  1  0
 22 20  1  0
 10  9  1  0
 14 15  1  0
 17 18  1  0
 10 11  1  1
 11 12  1  0
 12 13  2  0
 12 19  1  0
 14 16  2  0
 17 16  1  0
 13 14  1  0
 19 17  2  0
 23 22  1  6
 24 23  1  0
 23 55  1  0
 24 25  2  0
 26 24  1  0
 55 54  1  6
 55 56  1  0
 54 52  1  0
 30 26  1  0
 26 27  1  0
 31 30  1  0
 30 29  1  1
 31 32  2  0
 33 31  1  0
 29 28  1  0
 28 27  2  0
 39 40  2  0
 38 39  1  0
 39 41  1  0
 33 38  1  0
 33 34  1  0
 38 37  1  1
 37 36  1  0
 34 35  1  0
 35 36  1  0
 41 42  1  0
 42 44  1  0
 42 43  1  1
 44 45  2  0
 44 46  1  0
 52 53  1  0
 52 51  1  0
 52 56  1  0
 46 51  1  0
 46 47  1  0
 51 50  1  6
 50 48  1  0
 47 48  1  0
 48 49  1  6
M  END
$$$$
