
     RDKit          3D

 20 21  0  0  0  0  0  0  0  0999 V2000
   15.8460   12.3350   36.8630 C   0  0  0  0  0  0  0  0  0  0  0  0
   14.5130   12.4390   37.6520 C   0  0  0  0  0  0  0  0  0  0  0  0
   13.9820   13.5220   37.8530 O   0  0  0  0  0  0  0  0  0  0  0  0
   14.0970   11.3150   38.2400 N   0  0  0  0  0  0  0  0  0  0  0  0
   13.0180   11.4110   39.0730 C   0  0  0  0  0  0  0  0  0  0  0  0
   12.2580   10.3070   39.3290 C   0  0  0  0  0  0  0  0  0  0  0  0
   11.2000   10.3960   40.2140 C   0  0  0  0  0  0  0  0  0  0  0  0
   10.9480   11.5400   40.9090 C   0  0  0  0  0  0  0  0  0  0  0  0
    9.7560   11.5200   41.8190 Cl  0  0  0  0  0  0  0  0  0  0  0  0
   11.7120   12.6670   40.6820 C   0  0  0  0  0  0  0  0  0  0  0  0
   11.3850   14.2520   41.5130 S   0  0  2  0  0  0  0  0  0  0  0  0
   12.4020   15.2140   41.2090 O   0  0  0  0  0  0  0  0  0  0  0  0
   11.1970   13.6800   42.8520 O   0  0  0  0  0  0  0  0  0  0  0  0
   10.1670   14.8790   41.0490 N   0  0  0  0  0  0  0  0  0  0  0  0
    9.7530   16.1790   41.6760 C   0  0  0  0  0  0  0  0  0  0  0  0
    8.2190   16.3560   41.5620 C   0  0  0  0  0  0  0  0  0  0  0  0
    7.8380   16.1320   40.1850 O   0  0  0  0  0  0  0  0  0  0  0  0
    9.0110   16.1960   39.2860 C   0  0  0  0  0  0  0  0  0  0  0  0
   10.0320   15.0410   39.5960 C   0  0  0  0  0  0  0  0  0  0  0  0
   12.7640   12.5940   39.7850 C   0  0  0  0  0  0  0  0  0  0  0  0
  1  2  1  0
  2  3  2  0
  2  4  1  0
  4  5  1  0
  5 20  2  0
  5  6  1  0
 20 10  1  0
  6  7  2  0
  7  8  1  0
  8  9  1  0
  8 10  2  0
 10 11  1  0
 11 12  2  0
 11 13  2  0
 11 14  1  6
 14 15  1  0
 14 19  1  0
 15 16  1  0
 16 17  1  0
 17 18  1  0
 18 19  1  0
M  END
$$$$
