
     RDKit          3D

 20 21  0  0  0  0  0  0  0  0999 V2000
   13.8047   13.6356   36.1962 C   0  0  0  0  0  0  0  0  0  0  0  0
   15.0814   13.3587   37.0773 C   0  0  0  0  0  0  0  0  0  0  0  0
   16.1893   13.3062   36.5470 O   0  0  0  0  0  0  0  0  0  0  0  0
   14.9151   13.4043   38.3935 N   0  0  0  0  0  0  0  0  0  0  0  0
   13.6603   13.5388   38.8657 C   0  0  0  0  0  0  0  0  0  0  0  0
   12.8204   14.5103   38.4191 C   0  0  0  0  0  0  0  0  0  0  0  0
   11.8041   14.9397   39.2323 C   0  0  0  0  0  0  0  0  0  0  0  0
   11.4864   14.3140   40.4226 C   0  0  0  0  0  0  0  0  0  0  0  0
   10.2841   14.7970   41.1533 Cl  0  0  0  0  0  0  0  0  0  0  0  0
   12.0947   13.1296   40.7185 C   0  0  0  0  0  0  0  0  0  0  0  0
   11.1917   11.7275   41.4645 S   0  0  2  0  0  0  0  0  0  0  0  0
   10.9456   11.9654   42.8578 O   0  0  0  0  0  0  0  0  0  0  0  0
   12.0601   10.6991   40.9786 O   0  0  0  0  0  0  0  0  0  0  0  0
    9.8344   11.5775   40.9573 N   0  0  0  0  0  0  0  0  0  0  0  0
    9.5187   12.3213   39.7201 C   0  0  0  0  0  0  0  0  0  0  0  0
    8.3920   11.6330   38.9218 C   0  0  0  0  0  0  0  0  0  0  0  0
    7.2942   11.3651   39.8263 O   0  0  0  0  0  0  0  0  0  0  0  0
    7.4473   12.1455   41.0811 C   0  0  0  0  0  0  0  0  0  0  0  0
    8.7508   11.7967   41.8603 C   0  0  0  0  0  0  0  0  0  0  0  0
   13.2543   12.7894   40.0199 C   0  0  0  0  0  0  0  0  0  0  0  0
  1  2  1  0
  2  3  2  0
  2  4  1  0
  4  5  1  0
  5 20  4  0
  5  6  4  0
 20 10  4  0
  6  7  4  0
  7  8  4  0
  8  9  1  0
  8 10  4  0
 11 10  1  6
 11 12  2  0
 11 13  2  0
 11 14  1  0
 14 15  1  0
 14 19  1  0
 15 16  1  0
 16 17  1  0
 17 18  1  0
 18 19  1  0
M  END
$$$$
