
     RDKit          3D

 20 20  0  0  0  0  0  0  0  0999 V2000
   13.8894   -1.8080   13.1379 C   0  0  0  0  0  0  0  0  0  0  0  0
   13.8316   -3.0081   13.9517 O   0  0  0  0  0  0  0  0  0  0  0  0
   13.9986   -2.5833   15.3525 C   0  0  0  0  0  0  0  0  0  0  0  0
   13.8917   -3.7491   16.4564 C   0  0  0  0  0  0  0  0  0  0  0  0
   14.1198   -3.1907   17.8007 N   0  0  0  0  0  0  0  0  0  0  0  0
   14.0385   -1.6979   17.8593 C   0  0  0  0  0  0  0  0  0  0  0  0
   15.6222   -3.9061   18.4768 S   0  0  1  0  0  0  0  0  0  0  0  0
   15.9604   -3.0909   19.7268 O   0  0  0  0  0  0  0  0  0  0  0  0
   15.0723   -5.2940   18.8831 O   0  0  0  0  0  0  0  0  0  0  0  0
   17.3110   -3.9198   17.3340 C   0  0  0  0  0  0  0  0  0  0  0  0
   17.6466   -5.0736   16.6364 C   0  0  0  0  0  0  0  0  0  0  0  0
   18.4615   -5.0291   15.4406 C   0  0  0  0  0  0  0  0  0  0  0  0
   19.1415   -6.1162   15.0701 N   0  0  0  0  0  0  0  0  0  0  0  0
   18.8473   -6.7374   13.8572 C   0  0  0  0  0  0  0  0  0  0  0  0
   18.8013   -5.8890   12.6442 C   0  0  0  0  0  0  0  0  0  0  0  0
   18.7482   -7.9628   13.6476 O   0  0  0  0  0  0  0  0  0  0  0  0
   18.8435   -3.7739   14.8973 C   0  0  0  0  0  0  0  0  0  0  0  0
   18.5830   -2.6529   15.6699 C   0  0  0  0  0  0  0  0  0  0  0  0
   17.9857   -2.7453   16.9410 C   0  0  0  0  0  0  0  0  0  0  0  0
   18.2838   -1.6330   18.1195 Cl  0  0  0  0  0  0  0  0  0  0  0  0
 15 14  1  0
 14 16  2  0
 14 13  1  0
 13 12  1  0
 12 11  4  0
 12 17  4  0
 11 10  4  0
 17 18  4  0
 18 19  4  0
 19 20  1  0
 19 10  4  0
 10  7  1  0
  7  8  2  0
  7  9  2  0
  7  5  1  1
  5  6  1  0
  5  4  1  0
  4  3  1  0
  3  2  1  0
  2  1  1  0
M  END
$$$$
