
     RDKit          3D

 20 20  0  0  0  0  0  0  0  0999 V2000
   18.9760   -2.9460   13.8240 C   0  0  0  0  0  0  0  0  0  0  0  0
   19.2740   -2.5220   15.1850 O   0  0  0  0  0  0  0  0  0  0  0  0
   18.5170   -1.2980   15.4570 C   0  0  0  0  0  0  0  0  0  0  0  0
   18.9060   -0.5160   16.7600 C   0  0  0  0  0  0  0  0  0  0  0  0
   17.8800   -0.7160   17.8170 N   0  0  0  0  0  0  0  0  0  0  0  0
   16.5720   -0.0980   17.5230 C   0  0  0  0  0  0  0  0  0  0  0  0
   17.7840   -2.4650   18.2510 S   0  0  2  0  0  0  0  0  0  0  0  0
   17.3600   -2.5260   19.7180 O   0  0  0  0  0  0  0  0  0  0  0  0
   19.2980   -2.8250   18.0940 O   0  0  0  0  0  0  0  0  0  0  0  0
   16.4900   -3.6590   17.2340 C   0  0  0  0  0  0  0  0  0  0  0  0
   16.9330   -4.6830   16.3910 C   0  0  0  0  0  0  0  0  0  0  0  0
   16.0560   -5.5260   15.6420 C   0  0  0  0  0  0  0  0  0  0  0  0
   16.5470   -6.5100   14.8530 N   0  0  0  0  0  0  0  0  0  0  0  0
   17.8360   -6.4360   14.3700 C   0  0  0  0  0  0  0  0  0  0  0  0
   18.2860   -7.6220   13.6290 C   0  0  0  0  0  0  0  0  0  0  0  0
   18.5810   -5.4640   14.3610 O   0  0  0  0  0  0  0  0  0  0  0  0
   14.6740   -5.3780   15.7890 C   0  0  0  0  0  0  0  0  0  0  0  0
   14.2050   -4.3790   16.6340 C   0  0  0  0  0  0  0  0  0  0  0  0
   15.0980   -3.5390   17.3440 C   0  0  0  0  0  0  0  0  0  0  0  0
   14.4970   -2.3320   18.3230 Cl  0  0  0  0  0  0  0  0  0  0  0  0
 15 14  1  0
 14 16  2  0
 14 13  1  0
 13 12  1  0
 12 11  2  0
 12 17  1  0
 11 10  1  0
 17 18  2  0
 18 19  1  0
 19 20  1  0
 19 10  2  0
 10  7  1  0
  7  8  2  0
  7  9  2  0
  7  5  1  6
  5  6  1  0
  5  4  1  0
  4  3  1  0
  3  2  1  0
  2  1  1  0
M  END
$$$$
