
     RDKit          3D

 25 27  0  0  0  0  0  0  0  0999 V2000
   16.9542   28.5684   -1.3522 C   0  0  0  0  0  0  0  0  0  0  0  0
   17.4856   29.0792   -2.5412 O   0  0  0  0  0  0  0  0  0  0  0  0
   16.6111   29.0483   -3.5774 C   0  0  0  0  0  0  0  0  0  0  0  0
   15.2726   29.4823   -3.4747 C   0  0  0  0  0  0  0  0  0  0  0  0
   14.3112   28.7188   -4.1614 C   0  0  0  0  0  0  0  0  0  0  0  0
   13.0802   28.4624   -3.5441 C   0  0  0  0  0  0  0  0  0  0  0  0
   11.8684   28.9139   -4.3823 C   0  0  2  0  0  0  0  0  0  0  0  0
   12.0471   28.4949   -5.8390 C   0  0  0  0  0  0  0  0  0  0  0  0
   11.1162   29.3136   -6.5778 O   0  0  0  0  0  0  0  0  0  0  0  0
   10.7813   30.4973   -5.7425 C   0  0  0  0  0  0  0  0  0  0  0  0
   11.8162   30.4426   -4.5768 C   0  0  1  0  0  0  0  0  0  0  0  0
   11.2280   31.2229   -3.3364 C   0  0  0  0  0  0  0  0  0  0  0  0
   11.4006   32.5625   -3.5936 C   0  0  0  0  0  0  0  0  0  0  0  0
   11.3932   33.4638   -2.5069 C   0  0  0  0  0  0  0  0  0  0  0  0
   11.3273   34.8418   -2.7322 C   0  0  0  0  0  0  0  0  0  0  0  0
   11.4060   35.3254   -4.0037 C   0  0  0  0  0  0  0  0  0  0  0  0
   11.0770   36.6044   -4.3921 O   0  0  0  0  0  0  0  0  0  0  0  0
   11.7003   34.4509   -5.0747 C   0  0  0  0  0  0  0  0  0  0  0  0
   12.3698   35.0289   -6.0964 O   0  0  0  0  0  0  0  0  0  0  0  0
   13.1133   36.1816   -5.7286 C   0  0  0  0  0  0  0  0  0  0  0  0
   11.5675   33.0727   -4.8686 C   0  0  0  0  0  0  0  0  0  0  0  0
   14.6939   27.9531   -5.2553 C   0  0  0  0  0  0  0  0  0  0  0  0
   16.0048   27.6208   -5.4162 C   0  0  0  0  0  0  0  0  0  0  0  0
   16.9890   28.2828   -4.6618 C   0  0  0  0  0  0  0  0  0  0  0  0
   18.3265   28.0520   -4.8000 O   0  0  0  0  0  0  0  0  0  0  0  0
  5  6  1  0
  5 22  4  0
  4  5  4  0
  7  6  1  6
  7  8  1  0
  7 11  1  0
  8  9  1  0
 11 10  1  0
 10  9  1  0
 12 13  1  0
 11 12  1  6
 14 15  4  0
 15 16  4  0
 21 18  4  0
 18 16  4  0
 18 19  1  0
 13 21  4  0
 24 23  4  0
  3 24  4  0
 24 25  1  0
  2  1  1  0
 13 14  4  0
 16 17  1  0
 19 20  1  0
 23 22  4  0
  3  4  4  0
  3  2  1  0
M  END
$$$$
