
     RDKit          3D

 25 27  0  0  0  0  0  0  0  0999 V2000
   13.4990   34.9810   -4.1420 C   0  0  0  0  0  0  0  0  0  0  0  0
   13.5320   34.9960   -2.7150 O   0  0  0  0  0  0  0  0  0  0  0  0
   13.8990   33.8000   -2.1710 C   0  0  0  0  0  0  0  0  0  0  0  0
   14.4020   32.7290   -2.9000 C   0  0  0  0  0  0  0  0  0  0  0  0
   14.7480   31.5410   -2.2550 C   0  0  0  0  0  0  0  0  0  0  0  0
   15.2560   30.4320   -2.9520 C   0  0  0  0  0  0  0  0  0  0  0  0
   14.6790   30.3210   -4.3800 C   0  0  1  0  0  0  0  0  0  0  0  0
   15.3060   29.1140   -5.0900 C   0  0  0  0  0  0  0  0  0  0  0  0
   14.6330   27.9640   -4.4830 O   0  0  0  0  0  0  0  0  0  0  0  0
   13.3470   28.4420   -3.9480 C   0  0  0  0  0  0  0  0  0  0  0  0
   13.2120   29.8950   -4.4280 C   0  0  2  0  0  0  0  0  0  0  0  0
   12.5920   29.9330   -5.8430 C   0  0  0  0  0  0  0  0  0  0  0  0
   12.1080   31.2260   -6.0830 C   0  0  0  0  0  0  0  0  0  0  0  0
   10.8130   31.5600   -5.6950 C   0  0  0  0  0  0  0  0  0  0  0  0
   10.3150   32.8380   -5.9160 C   0  0  0  0  0  0  0  0  0  0  0  0
   11.1250   33.7830   -6.5280 C   0  0  0  0  0  0  0  0  0  0  0  0
   10.7070   35.0550   -6.7770 O   0  0  0  0  0  0  0  0  0  0  0  0
   12.4140   33.4620   -6.9270 C   0  0  0  0  0  0  0  0  0  0  0  0
   13.1120   34.4780   -7.5150 O   0  0  0  0  0  0  0  0  0  0  0  0
   14.4850   34.1700   -7.7700 C   0  0  0  0  0  0  0  0  0  0  0  0
   12.9150   32.1800   -6.7040 C   0  0  0  0  0  0  0  0  0  0  0  0
   14.5910   31.4460   -0.8760 C   0  0  0  0  0  0  0  0  0  0  0  0
   14.0880   32.5170   -0.1460 C   0  0  0  0  0  0  0  0  0  0  0  0
   13.7450   33.6910   -0.8010 C   0  0  0  0  0  0  0  0  0  0  0  0
   13.2490   34.7790   -0.1540 O   0  0  0  0  0  0  0  0  0  0  0  0
  5  6  1  0
  5 22  2  0
  4  5  1  0
  7  6  1  1
  7  8  1  0
  7 11  1  0
  8  9  1  0
 11 10  1  0
 10  9  1  0
 12 13  1  0
 11 12  1  6
 14 15  2  0
 15 16  1  0
 21 18  1  0
 18 16  2  0
 18 19  1  0
 13 21  2  0
 24 23  2  0
  3 24  1  0
 24 25  1  0
  2  1  1  0
 13 14  1  0
 16 17  1  0
 19 20  1  0
 23 22  1  0
  3  4  2  0
  3  2  1  0
M  END
$$$$
