
     RDKit          3D

 34 37  0  0  0  0  0  0  0  0999 V2000
   65.1563   47.5249    6.0769 H   0  0  0  0  0  0  0  0  0  0  0  0
   65.5925   48.6779    6.0404 N   0  0  0  0  0  0  0  0  0  0  0  0
   66.4503   48.7702    7.0694 C   0  0  0  0  0  0  0  0  0  0  0  0
   66.9116   50.0143    7.4482 N   0  0  0  0  0  0  0  0  0  0  0  0
   67.8237   50.2673    8.5658 C   0  0  2  0  0  0  0  0  0  0  0  0
   67.7126   51.7828    8.8504 C   0  0  0  0  0  0  0  0  0  0  0  0
   69.3111   49.9383    8.2132 C   0  0  0  0  0  0  0  0  0  0  0  0
   69.6651   49.6847    6.8877 C   0  0  0  0  0  0  0  0  0  0  0  0
   71.0244   49.4535    6.5231 C   0  0  0  0  0  0  0  0  0  0  0  0
   71.2455   48.7056    5.4460 N   0  0  0  0  0  0  0  0  0  0  0  0
   71.5994   47.3840    5.3678 C   0  0  0  0  0  0  0  0  0  0  0  0
   72.7499   46.9198    5.6302 O   0  0  0  0  0  0  0  0  0  0  0  0
   70.6041   46.4968    4.6363 C   0  0  0  0  0  0  0  0  0  0  0  0
   70.6801   45.1186    4.7701 C   0  0  0  0  0  0  0  0  0  0  0  0
   70.4377   44.3289    3.7230 N   0  0  0  0  0  0  0  0  0  0  0  0
   70.0970   44.8571    2.5307 C   0  0  0  0  0  0  0  0  0  0  0  0
   70.1020   44.1607    1.3468 O   0  0  0  0  0  0  0  0  0  0  0  0
   71.3916   43.8214    0.7861 C   0  0  0  0  0  0  0  0  0  0  0  0
   71.1585   43.2593   -0.5560 C   0  0  0  0  0  0  0  0  0  0  0  0
   71.3055   43.2786   -1.7546 C   0  0  0  0  0  0  0  0  0  0  0  0
   69.8746   46.2245    2.4447 C   0  0  0  0  0  0  0  0  0  0  0  0
   70.0442   46.9823    3.4902 N   0  0  0  0  0  0  0  0  0  0  0  0
   71.9892   49.7010    7.5179 C   0  0  0  0  0  0  0  0  0  0  0  0
   71.6217   49.9087    8.8421 C   0  0  0  0  0  0  0  0  0  0  0  0
   72.5274   49.9116    9.8468 F   0  0  0  0  0  0  0  0  0  0  0  0
   70.2844   50.0438    9.1635 C   0  0  0  0  0  0  0  0  0  0  0  0
   69.9731   50.3934   10.4185 F   0  0  0  0  0  0  0  0  0  0  0  0
   67.3651   49.5170    9.8310 C   0  0  1  0  0  0  0  0  0  0  0  0
   65.9115   49.1008    9.9570 C   0  0  0  0  0  0  0  0  0  0  0  0
   66.9744   48.0387    9.6593 C   0  0  2  0  0  0  0  0  0  0  0  0
   67.3634   47.1193   10.7624 C   0  0  0  0  0  0  0  0  0  0  0  0
   66.6659   45.9034   10.6519 O   0  0  0  0  0  0  0  0  0  0  0  0
   66.5741   45.1932   11.8816 C   0  0  0  0  0  0  0  0  0  0  0  0
   66.8899   47.3892    7.9865 S   0  0  0  0  0  0  0  0  0  0  0  0
 33 32  1  0
 32 31  1  0
 30 31  1  6
 30 28  1  0
 30 29  1  0
 30 34  1  0
 28 29  1  1
 28  5  1  0
 34  3  1  0
  3  2  2  0
  3  4  1  0
  4  5  1  0
  5  6  1  1
  5  7  1  0
  7  8  4  0
  7 26  4  0
  8  9  4  0
 26 27  1  0
 26 24  4  0
 24 25  1  0
 24 23  4  0
 23  9  4  0
  9 10  1  0
 10 11  1  0
 11 12  2  0
 11 13  1  0
 13 14  4  0
 13 22  4  0
 14 15  4  0
 15 16  4  0
 22 21  4  0
 21 16  4  0
 16 17  1  0
 17 18  1  0
 18 19  1  0
 19 20  3  0
  2  1  1  0
M  END
$$$$
