
     RDKit          3D

147155  0  0  0  0  0  0  0  0999 V2000
  164.2600    5.0100    2.8140 C   0  0  0  0  0  0  0  0  0  0  0  0
  165.6490    5.0670    3.4040 C   0  0  0  0  0  0  0  0  0  0  0  0
  165.8120    4.5130    4.4840 O   0  0  0  0  0  0  0  0  0  0  0  0
  166.6750    5.7110    2.7750 N   0  0  0  0  0  0  0  0  0  0  0  0
  166.5150    6.3730    1.4850 C   0  0  0  0  0  0  0  0  0  0  0  0
  167.6720    7.3940    1.5610 C   0  0  0  0  0  0  0  0  0  0  0  0
  168.7690    6.6630    2.3640 C   0  0  0  0  0  0  0  0  0  0  0  0
  168.0140    5.7570    3.3710 C   0  0  1  0  0  0  0  0  0  0  0  0
  168.0230    6.3880    4.7530 C   0  0  0  0  0  0  0  0  0  0  0  0
  167.2880    7.3400    5.0000 O   0  0  0  0  0  0  0  0  0  0  0  0
  168.8890    5.8380    5.6440 N   0  0  0  0  0  0  0  0  0  0  0  0
  169.0710    6.2840    7.0270 C   0  0  1  0  0  0  0  0  0  0  0  0
  170.2570    5.5240    7.6610 C   0  0  0  0  0  0  0  0  0  0  0  0
  169.9050    4.1130    8.0460 C   0  0  0  0  0  0  0  0  0  0  0  0
  170.1570    2.9860    7.3530 C   0  0  0  0  0  0  0  0  0  0  0  0
  169.7180    1.9480    8.0260 N   0  0  0  0  0  0  0  0  0  0  0  0
  169.1620    2.3170    9.2010 C   0  0  0  0  0  0  0  0  0  0  0  0
  168.5870    1.5210   10.1980 C   0  0  0  0  0  0  0  0  0  0  0  0
  168.0790    2.1950   11.3310 C   0  0  0  0  0  0  0  0  0  0  0  0
  167.3440    1.2830   12.6320 Cl  0  0  0  0  0  0  0  0  0  0  0  0
  168.1510    3.5940   11.4480 C   0  0  0  0  0  0  0  0  0  0  0  0
  168.7300    4.3810   10.4430 C   0  0  0  0  0  0  0  0  0  0  0  0
  169.2270    3.7010    9.3260 C   0  0  0  0  0  0  0  0  0  0  0  0
  169.4150    7.7580    7.0390 C   0  0  0  0  0  0  0  0  0  0  0  0
  168.9390    8.4280    7.9460 O   0  0  0  0  0  0  0  0  0  0  0  0
  170.2280    8.2470    6.0620 N   0  0  0  0  0  0  0  0  0  0  0  0
  170.6590    9.6470    5.9610 C   0  0  1  0  0  0  0  0  0  0  0  0
  171.6780    9.7650    4.7880 C   0  0  0  0  0  0  0  0  0  0  0  0
  173.1550    9.6290    5.2630 C   0  0  0  0  0  0  0  0  0  0  0  0
  173.8790   11.0010    5.3720 C   0  0  0  0  0  0  0  0  0  0  0  0
  174.0300   11.4080    6.7750 N   0  0  0  0  0  0  0  0  0  0  0  0
  174.1370   12.6470    7.2100 C   0  0  0  0  0  0  0  0  0  0  0  0
  175.3160   13.1960    7.4170 N   0  0  0  0  0  0  0  0  0  0  0  0
  173.0690   13.3100    7.4380 N   0  0  0  0  0  4  0  0  0  0  0  0
  169.5130   10.6220    5.7690 C   0  0  0  0  0  0  0  0  0  0  0  0
  169.7580   11.7920    6.0200 O   0  0  0  0  0  0  0  0  0  0  0  0
  168.2950   10.1870    5.3490 N   0  0  0  0  0  0  0  0  0  0  0  0
  167.1650   11.1140    5.1590 C   0  0  1  0  0  0  0  0  0  0  0  0
  166.4380   10.8380    3.8040 C   0  0  0  0  0  0  0  0  0  0  0  0
  167.3140   11.0120    2.5220 C   0  0  1  0  0  0  0  0  0  0  0  0
  166.4520   10.7300    1.2590 C   0  0  0  0  0  0  0  0  0  0  0  0
  167.9640   12.4240    2.4000 C   0  0  0  0  0  0  0  0  0  0  0  0
  166.1750   11.0020    6.3070 C   0  0  0  0  0  0  0  0  0  0  0  0
  165.2020   11.7470    6.3070 O   0  0  0  0  0  0  0  0  0  0  0  0
  166.4220   10.0910    7.2860 N   0  0  0  0  0  0  0  0  0  0  0  0
  165.5370    9.9080    8.4360 C   0  0  1  0  0  0  0  0  0  0  0  0
  165.7810    8.5080    9.0660 C   0  0  0  0  0  0  0  0  0  0  0  0
  165.0780    7.3980    8.2400 C   0  0  0  0  0  0  0  0  0  0  0  0
  165.5690    5.9820    8.6370 C   0  0  0  0  0  0  0  0  0  0  0  0
  165.2900    5.0060    7.5830 N   0  0  0  0  0  0  0  0  0  0  0  0
  164.3580    4.0770    7.6580 C   0  0  0  0  0  0  0  0  0  0  0  0
  163.8340    3.7550    8.8220 N   0  0  0  0  0  0  0  0  0  0  0  0
  163.9840    3.4890    6.5860 N   0  0  0  0  0  4  0  0  0  0  0  0
  165.7740   10.9940    9.4650 C   0  0  0  0  0  0  0  0  0  0  0  0
  166.8720   11.5250    9.5350 O   0  0  0  0  0  0  0  0  0  0  0  0
  164.7420   11.3290   10.2740 N   0  0  0  0  0  0  0  0  0  0  0  0
  164.8540   12.3520   11.3120 C   0  0  1  0  0  0  0  0  0  0  0  0
  163.4050   12.7950   11.6540 C   0  0  0  0  0  0  0  0  0  0  0  0
  163.3110   13.8870   12.7540 C   0  0  0  0  0  0  0  0  0  0  0  0
  161.8350   14.0700   13.2060 C   0  0  0  0  0  0  0  0  0  0  0  0
  161.3150   12.8160   13.9610 C   0  0  0  0  0  0  0  0  0  0  0  0
  160.3050   13.2020   14.9670 N   0  0  0  0  0  4  0  0  0  0  0  0
  165.5750   11.6870   12.4660 C   0  0  0  0  0  0  0  0  0  0  0  0
  164.9590   10.8990   13.1680 O   0  0  0  0  0  0  0  0  0  0  0  0
  166.8840   11.9870   12.6390 N   0  0  0  0  0  0  0  0  0  0  0  0
  167.7110   11.3930   13.6920 C   0  0  1  0  0  0  0  0  0  0  0  0
  168.5590   10.2400   13.0500 C   0  0  0  0  0  0  0  0  0  0  0  0
  167.7050    9.0640   12.4870 C   0  0  1  0  0  0  0  0  0  0  0  0
  168.4530    7.7460   12.1360 C   0  0  0  0  0  0  0  0  0  0  0  0
  167.2220    6.9920   12.6980 C   0  0  0  0  0  0  0  0  0  0  0  0
  166.8500    8.2670   13.5040 C   0  0  0  0  0  0  0  0  0  0  0  0
  168.6810   12.4300   14.2130 C   0  0  0  0  0  0  0  0  0  0  0  0
  168.9550   13.3340   13.4340 O   0  0  0  0  0  0  0  0  0  0  0  0
  169.2450   12.3470   15.4540 N   0  0  0  0  0  0  0  0  0  0  0  0
  168.9330   11.2700   16.3900 C   0  0  0  0  0  0  0  0  0  0  0  0
  169.3190   11.9590   17.7150 C   0  0  2  0  0  0  0  0  0  0  0  0
  168.2350   12.7280   18.2570 O   0  0  0  0  0  0  0  0  0  0  0  0
  170.5320   12.8350   17.3270 C   0  0  0  0  0  0  0  0  0  0  0  0
  170.1940   13.3580   15.9050 C   0  0  1  0  0  0  0  0  0  0  0  0
  171.4480   13.3650   15.0540 C   0  0  0  0  0  0  0  0  0  0  0  0
  171.7560   12.3460   14.4450 O   0  0  0  0  0  0  0  0  0  0  0  0
  172.1810   14.5100   15.0410 N   0  0  0  0  0  0  0  0  0  0  0  0
  173.4260   14.6610   14.2840 C   0  0  1  0  0  0  0  0  0  0  0  0
  174.1020   16.0360   14.5630 C   0  0  0  0  0  0  0  0  0  0  0  0
  173.4780   17.2790   13.9660 C   0  0  0  0  0  0  0  0  0  0  0  0
  173.9120   18.3900   14.2550 O   0  0  0  0  0  0  0  0  0  0  0  0
  172.4510   17.0990   13.1280 O   0  0  0  0  0  1  0  0  0  0  0  0
  174.4690   13.6300   14.6850 C   0  0  0  0  0  0  0  0  0  0  0  0
  175.2020   13.1650   13.8170 O   0  0  0  0  0  0  0  0  0  0  0  0
  174.5440   13.2810   16.0050 N   0  0  0  0  0  0  0  0  0  0  0  0
  175.5200   12.3140   16.5380 C   0  0  1  0  0  0  0  0  0  0  0  0
  175.3680   12.2110   18.0780 C   0  0  0  0  0  0  0  0  0  0  0  0
  173.9830   12.0140   18.4080 O   0  0  0  0  0  0  0  0  0  0  0  0
  175.4260   10.9570   15.8530 C   0  0  0  0  0  0  0  0  0  0  0  0
  176.4660   10.3160   15.7620 O   0  0  0  0  0  0  0  0  0  0  0  0
  174.2330   10.5270   15.3680 N   0  0  0  0  0  0  0  0  0  0  0  0
  174.0520    9.2300   14.6950 C   0  0  1  0  0  0  0  0  0  0  0  0
  172.5810    9.1720   14.2200 C   0  0  0  0  0  0  0  0  0  0  0  0
  172.1210    7.7720   13.7680 C   0  0  0  0  0  0  0  0  0  0  0  0
  172.2780    7.3630   12.4280 C   0  0  0  0  0  0  0  0  0  0  0  0
  171.8340    6.0990   12.0120 C   0  0  0  0  0  0  0  0  0  0  0  0
  171.2210    5.2290   12.9290 C   0  0  0  0  0  0  0  0  0  0  0  0
  171.0560    5.6330   14.2670 C   0  0  0  0  0  0  0  0  0  0  0  0
  171.5000    6.9020   14.6830 C   0  0  0  0  0  0  0  0  0  0  0  0
  175.0380    9.0280   13.5640 C   0  0  0  0  0  0  0  0  0  0  0  0
  175.3810    7.8730   13.3280 O   0  0  0  0  0  0  0  0  0  0  0  0
  175.5040   10.1190   12.8950 N   0  0  0  0  0  0  0  0  0  0  0  0
  176.4630    9.9930   11.7930 C   0  0  1  0  0  0  0  0  0  0  0  0
  175.9320   10.7360   10.5340 C   0  0  0  0  0  0  0  0  0  0  0  0
  174.6650   10.0030   10.0380 C   0  0  0  0  0  0  0  0  0  0  0  0
  174.8480    8.7630    9.3960 C   0  0  0  0  0  0  0  0  0  0  0  0
  173.7610    8.0220    8.9210 C   0  0  0  0  0  0  0  0  0  0  0  0
  172.4690    8.5300    9.0820 C   0  0  0  0  0  0  0  0  0  0  0  0
  172.2710    9.7650    9.7180 C   0  0  0  0  0  0  0  0  0  0  0  0
  170.9620   10.2500    9.8650 C   0  0  0  0  0  0  0  0  0  0  0  0
  170.7260   11.4810   10.4900 C   0  0  0  0  0  0  0  0  0  0  0  0
  171.7950   12.2330   10.9820 C   0  0  0  0  0  0  0  0  0  0  0  0
  173.0990   11.7470   10.8340 C   0  0  0  0  0  0  0  0  0  0  0  0
  173.3640   10.5120   10.2040 C   0  0  0  0  0  0  0  0  0  0  0  0
  177.8340   10.4910   12.1830 C   0  0  0  0  0  0  0  0  0  0  0  0
  178.6300   10.7150   11.2870 O   0  0  0  0  0  0  0  0  0  0  0  0
  178.1330   10.6570   13.4960 N   0  0  0  0  0  0  0  0  0  0  0  0
  179.4560   11.1340   13.9030 C   0  0  1  0  0  0  0  0  0  0  0  0
  179.3590   12.5430   14.5570 C   0  0  0  0  0  0  0  0  0  0  0  0
  179.0930   13.6530   13.5050 C   0  0  0  0  0  0  0  0  0  0  0  0
  180.4190   14.3220   13.0440 C   0  0  0  0  0  0  0  0  0  0  0  0
  180.4780   14.4530   11.4970 C   0  0  0  0  0  0  0  0  0  0  0  0
  180.9150   13.1690   10.9050 N   0  0  0  0  0  4  0  0  0  0  0  0
  180.0440   10.1220   14.8610 C   0  0  0  0  0  0  0  0  0  0  0  0
  179.6310   10.1010   16.0200 O   0  0  0  0  0  0  0  0  0  0  0  0
  180.9930    9.2830   14.3670 N   0  0  0  0  0  0  0  0  0  0  0  0
  181.6010    8.2660   15.2200 C   0  0  1  0  0  0  0  0  0  0  0  0
  182.5820    7.3680   14.4120 C   0  0  0  0  0  0  0  0  0  0  0  0
  183.2580    6.3200   15.3450 C   0  0  0  0  0  0  0  0  0  0  0  0
  184.0190    5.2080   14.6730 C   0  0  0  0  0  0  0  0  0  0  0  0
  184.3830    4.2190   15.2970 O   0  0  0  0  0  0  0  0  0  0  0  0
  184.2740    5.3640   13.3710 O   0  0  0  0  0  1  0  0  0  0  0  0
  182.3400    8.9240   16.3770 C   0  0  0  0  0  0  0  0  0  0  0  0
  183.2180    9.7110   16.0430 O   0  0  0  0  0  0  0  0  0  0  0  0
  182.0580    8.6470   17.6950 N   0  0  0  0  0  0  0  0  0  0  0  0
  181.0160    7.7020   18.0860 C   0  0  0  0  0  0  0  0  0  0  0  0
  180.8450    8.0300   19.5840 C   0  0  0  0  0  0  0  0  0  0  0  0
  182.2380    8.5150   20.0200 C   0  0  0  0  0  0  0  0  0  0  0  0
  182.8010    9.2740   18.7910 C   0  0  1  0  0  0  0  0  0  0  0  0
  184.2850    8.9980   18.6830 C   0  0  0  0  0  0  0  0  0  0  0  0
  185.1310    9.8360   19.3210 N   0  0  0  0  0  0  0  0  0  0  0  0
  184.6900    8.0400   18.0320 O   0  0  0  0  0  0  0  0  0  0  0  0
  2  3  2  0
  2  1  1  0
  2  4  1  0
  4  8  1  0
  4  5  1  0
  8  9  1  1
  8  7  1  0
  9 10  2  0
  9 11  1  0
  7  6  1  0
  6  5  1  0
 11 12  1  0
 12 13  1  6
 12 24  1  0
 13 14  1  0
 14 23  1  0
 14 15  2  0
 23 22  2  0
 23 17  1  0
 22 21  1  0
 17 16  1  0
 17 18  2  0
 16 15  1  0
 18 19  1  0
 19 20  1  0
 19 21  2  0
 24 25  2  0
 24 26  1  0
 26 27  1  0
 27 35  1  0
 27 28  1  6
 35 36  2  0
 35 37  1  0
 28 29  1  0
 29 30  1  0
 30 31  1  0
 31 32  1  0
 32 34  2  0
 32 33  1  0
 37 38  1  0
 38 43  1  0
 38 39  1  6
 43 44  2  0
 43 45  1  0
 39 40  1  0
 40 41  1  6
 40 42  1  0
 45 46  1  0
 46 54  1  0
 46 47  1  1
 54 55  2  0
 54 56  1  0
 47 48  1  0
 48 49  1  0
 49 50  1  0
 50 51  1  0
 51 53  2  0
 51 52  1  0
 56 57  1  0
 57 63  1  0
 57 58  1  1
 63 64  2  0
 63 65  1  0
 58 59  1  0
 59 60  1  0
 60 61  1  0
 61 62  1  0
 65 66  1  0
 66 67  1  6
 66 72  1  0
 68 67  1  1
 72 73  2  0
 72 74  1  0
 68 69  1  0
 68 71  1  0
 69 70  1  0
 71 70  1  0
 74 79  1  0
 74 75  1  0
 79 80  1  6
 79 78  1  0
 80 81  2  0
 80 82  1  0
 78 76  1  0
 76 75  1  0
 76 77  1  6
 82 83  1  0
 83 88  1  0
 83 84  1  1
 88 89  2  0
 88 90  1  0
 84 85  1  0
 85 87  1  0
 85 86  2  0
 90 91  1  0
 91 94  1  0
 91 92  1  1
 94 95  2  0
 94 96  1  0
 92 93  1  0
 96 97  1  0
 97105  1  0
 97 98  1  6
105106  2  0
105107  1  0
 98 99  1  0
 99100  2  0
 99104  1  0
100101  1  0
104103  2  0
101102  2  0
103102  1  0
107108  1  0
108120  1  0
108109  1  6
120121  2  0
120122  1  0
109110  1  0
110111  2  0
110119  1  0
111112  1  0
112113  2  0
119114  2  0
119118  1  0
114113  1  0
114115  1  0
118117  2  0
117116  1  0
116115  2  0
122123  1  0
123129  1  0
123124  1  1
129130  2  0
129131  1  0
124125  1  0
125126  1  0
126127  1  0
127128  1  0
131132  1  0
132138  1  0
132133  1  6
138139  2  0
138140  1  0
133134  1  0
134135  1  0
135137  1  0
135136  2  0
140144  1  0
140141  1  0
144145  1  6
144143  1  0
145147  2  0
145146  1  0
143142  1  0
142141  1  0
M  CHG  6  34   1  53   1  62   1  87  -1 128   1 137  -1
M  END
$$$$
