
     RDKit          3D

119126  0  0  0  0  0  0  0  0999 V2000
   24.0230   60.3350   14.9500 C   0  0  0  0  0  0  0  0  0  0  0  0
   25.0520   61.4570   15.3320 C   0  0  0  0  0  0  0  0  0  0  0  0
   25.5580   61.4880   16.8050 C   0  0  2  0  0  0  0  0  0  0  0  0
   26.4140   60.2550   17.1350 C   0  0  0  0  0  0  0  0  0  0  0  0
   24.4020   61.6950   17.8350 C   0  0  2  0  0  0  0  0  0  0  0  0
   23.4790   62.7690   17.4620 N   0  0  0  0  0  0  0  0  0  0  0  0
   22.1580   62.6630   17.5950 C   0  0  0  0  0  0  0  0  0  0  0  0
   21.6090   61.6290   17.9930 O   0  0  0  0  0  0  0  0  0  0  0  0
   21.3090   63.8790   17.1840 C   0  0  2  0  0  0  0  0  0  0  0  0
   21.2090   64.8770   18.3570 C   0  0  0  0  0  0  0  0  0  0  0  0
   20.6230   66.2450   18.0100 C   0  0  0  0  0  0  0  0  0  0  0  0
   20.0910   66.9400   19.2650 C   0  0  0  0  0  0  0  0  0  0  0  0
   20.1400   68.4460   19.1860 C   0  0  0  0  0  0  0  0  0  0  0  0
   19.5190   69.0800   20.3790 N   0  0  0  0  0  4  0  0  0  0  0  0
   19.9880   63.3670   16.8290 N   0  0  0  0  0  0  0  0  0  0  0  0
   19.7580   62.6750   15.7040 C   0  0  0  0  0  0  0  0  0  0  0  0
   20.6340   62.4220   14.8700 O   0  0  0  0  0  0  0  0  0  0  0  0
   18.3780   62.0920   15.5450 C   0  0  2  0  0  0  0  0  0  0  0  0
   18.4870   60.5830   15.8380 C   0  0  0  0  0  0  0  0  0  0  0  0
   17.2030   59.7900   15.9050 C   0  0  0  0  0  0  0  0  0  0  0  0
   16.4610   59.7340   17.0790 C   0  0  0  0  0  0  0  0  0  0  0  0
   15.2990   58.9590   17.1540 C   0  0  0  0  0  0  0  0  0  0  0  0
   14.8920   58.2300   16.0640 C   0  0  0  0  0  0  0  0  0  0  0  0
   15.6220   58.2530   14.9020 C   0  0  0  0  0  0  0  0  0  0  0  0
   16.7860   59.0220   14.8250 C   0  0  0  0  0  0  0  0  0  0  0  0
   17.8240   62.3330   14.2090 N   0  0  0  0  0  0  0  0  0  0  0  0
   17.1150   63.4340   13.8680 C   0  0  0  0  0  0  0  0  0  0  0  0
   16.8770   64.3520   14.6610 O   0  0  0  0  0  0  0  0  0  0  0  0
   16.5890   63.5120   12.4470 C   0  0  0  0  0  0  0  0  0  0  0  0
   17.2050   62.5850   11.5030 N   0  0  0  0  0  0  0  0  0  0  0  0
   16.7210   61.3740   11.2060 C   0  0  0  0  0  0  0  0  0  0  0  0
   15.6930   60.8990   11.7020 O   0  0  0  0  0  0  0  0  0  0  0  0
   17.5370   60.5590   10.1830 C   0  0  2  0  0  0  0  0  0  0  0  0
   17.1920   59.0570   10.2360 C   0  0  0  0  0  0  0  0  0  0  0  0
   17.6370   58.2580    9.0310 C   0  0  0  0  0  0  0  0  0  0  0  0
   17.0160   58.4180    7.7950 C   0  0  0  0  0  0  0  0  0  0  0  0
   17.4050   57.6660    6.6870 C   0  0  0  0  0  0  0  0  0  0  0  0
   18.4010   56.7090    6.8190 C   0  0  0  0  0  0  0  0  0  0  0  0
   18.7840   55.9560    5.7320 O   0  0  0  0  0  0  0  0  0  0  0  0
   19.0010   56.5030    8.0510 C   0  0  0  0  0  0  0  0  0  0  0  0
   18.6130   57.2710    9.1480 C   0  0  0  0  0  0  0  0  0  0  0  0
   18.9770   60.8060   10.3190 N   0  0  0  0  0  0  0  0  0  0  0  0
   19.7400   60.5870   11.4170 C   0  0  0  0  0  0  0  0  0  0  0  0
   19.3060   60.1160   12.4750 O   0  0  0  0  0  0  0  0  0  0  0  0
   21.2070   61.0140   11.3100 C   0  0  2  0  0  0  0  0  0  0  0  0
   22.1790   59.8650   11.6310 C   0  0  0  0  0  0  0  0  0  0  0  0
   22.0350   58.5550   10.8270 C   0  0  1  0  0  0  0  0  0  0  0  0
   22.1410   58.7870    9.3140 C   0  0  0  0  0  0  0  0  0  0  0  0
   23.0700   57.5510   11.2620 C   0  0  0  0  0  0  0  0  0  0  0  0
   21.4220   62.1590   12.1900 N   0  0  0  0  0  0  0  0  0  0  0  0
   21.7370   63.3880   11.7400 C   0  0  0  0  0  0  0  0  0  0  0  0
   21.9220   63.6440   10.5480 O   0  0  0  0  0  0  0  0  0  0  0  0
   21.8690   64.4940   12.7840 C   0  0  2  0  0  0  0  0  0  0  0  0
   20.6590   65.4430   12.7300 C   0  0  0  0  0  0  0  0  0  0  0  0
   20.4520   66.2510   14.0020 C   0  0  0  0  0  0  0  0  0  0  0  0
   19.1080   66.9400   13.9830 C   0  0  0  0  0  0  0  0  0  0  0  0
   19.0940   68.1560   14.7990 N   0  0  0  0  0  0  0  0  0  0  0  0
   18.3240   68.3350   15.8670 C   0  0  0  0  0  0  0  0  0  0  0  0
   17.4940   67.3780   16.2650 N   0  0  0  0  0  0  0  0  0  0  0  0
   18.3670   69.4780   16.5370 N   0  0  0  0  0  4  0  0  0  0  0  0
   23.1280   65.2260   12.6670 N   0  0  0  0  0  0  0  0  0  0  0  0
   24.4560   64.9700   12.6150 C   0  0  0  0  0  0  0  0  0  0  0  0
   24.8950   63.8530   12.6880 O   0  0  0  0  0  0  0  0  0  0  0  0
   25.3010   66.0500   11.8770 C   0  0  1  0  0  0  0  0  0  0  0  0
   24.4720   67.1470   11.3760 N   0  0  0  0  0  0  0  0  0  0  0  0
   24.3140   67.3790   10.0680 C   0  0  0  0  0  0  0  0  0  0  0  0
   25.0470   66.8890    9.2100 O   0  0  0  0  0  0  0  0  0  0  0  0
   23.1590   68.2810    9.6700 C   0  0  0  0  0  0  0  0  0  0  0  0
   22.1080   68.4950   10.6450 N   0  0  0  0  0  0  0  0  0  0  0  0
   21.5290   69.6900   10.7980 C   0  0  0  0  0  0  0  0  0  0  0  0
   20.4550   69.7740   11.8400 C   0  0  0  0  0  0  0  0  0  0  0  0
   21.8610   70.6680   10.1280 O   0  0  0  0  0  0  0  0  0  0  0  0
   26.4780   66.5620   12.7120 C   0  0  0  0  0  0  0  0  0  0  0  0
   27.3230   65.4280   13.0820 N   0  0  0  0  0  0  0  0  0  0  0  0
   27.5710   64.9380   14.3070 C   0  0  0  0  0  0  0  0  0  0  0  0
   28.3480   63.8300   14.0980 C   0  0  0  0  0  0  0  0  0  0  0  0
   28.5330   63.6990   12.7520 N   0  0  0  0  0  0  0  0  0  0  0  0
   27.9160   64.6790   12.1350 N   0  0  0  0  0  0  0  0  0  0  0  0
   28.9680   62.9120   15.0680 C   0  0  0  0  0  0  0  0  0  0  0  0
   29.7820   61.8720   14.6250 C   0  0  0  0  0  0  0  0  0  0  0  0
   30.4270   61.0440   15.5420 C   0  0  0  0  0  0  0  0  0  0  0  0
   31.2720   59.9110   15.0560 C   0  0  0  0  0  0  0  0  0  0  0  0
   31.7840   59.1560   15.9930 O   0  0  0  0  0  0  0  0  0  0  0  0
   31.4790   59.7230   13.8590 O   0  0  0  0  0  1  0  0  0  0  0  0
   30.2570   61.2620   16.9090 C   0  0  0  0  0  0  0  0  0  0  0  0
   29.4450   62.3010   17.3580 C   0  0  0  0  0  0  0  0  0  0  0  0
   28.7910   63.1150   16.4350 C   0  0  0  0  0  0  0  0  0  0  0  0
   29.3100   62.5680   18.8030 C   0  0  0  0  0  0  0  0  0  0  0  0
   29.7630   61.8490   19.8760 C   0  0  0  0  0  0  0  0  0  0  0  0
   29.3660   62.5440   20.9550 N   0  0  0  0  0  0  0  0  0  0  0  0
   28.6980   63.6530   20.5940 N   0  0  0  0  0  0  0  0  0  0  0  0
   28.6600   63.6680   19.2820 N   0  0  0  0  0  0  0  0  0  0  0  0
   29.5930   62.2420   22.3650 C   0  0  0  0  0  0  0  0  0  0  0  0
   28.5080   61.3470   22.9730 C   0  0  2  0  0  0  0  0  0  0  0  0
   28.6370   61.4210   24.5250 C   0  0  0  0  0  0  0  0  0  0  0  0
   28.7310   62.5090   25.0930 O   0  0  0  0  0  0  0  0  0  0  0  0
   28.6910   60.2480   25.1600 N   0  0  0  0  0  0  0  0  0  0  0  0
   29.1690   60.1190   26.5200 C   0  0  0  0  0  0  0  0  0  0  0  0
   28.1830   60.5130   27.6040 C   0  0  0  0  0  0  0  0  0  0  0  0
   27.6910   61.6400   27.6340 O   0  0  0  0  0  0  0  0  0  0  0  0
   27.9570   59.5860   28.5350 N   0  0  0  0  0  0  0  0  0  0  0  0
   27.6660   59.9360   29.9090 C   0  0  0  0  0  0  0  0  0  0  0  0
   28.9080   60.3320   30.6820 C   0  0  0  0  0  0  0  0  0  0  0  0
   29.6140   59.3540   31.2300 N   0  0  0  0  0  0  0  0  0  0  0  0
   29.2390   61.5200   30.7470 O   0  0  0  0  0  0  0  0  0  0  0  0
   27.2930   61.7000   22.3010 O   0  0  0  0  0  0  0  0  0  0  0  0
   27.1540   61.6700   22.4770 N   0  0  0  0  0  0  0  0  0  0  0  0
   26.6910   60.8290   21.6690 C   0  0  0  0  0  0  0  0  0  0  0  0
   27.1580   59.8190   21.1370 O   0  0  0  0  0  0  0  0  0  0  0  0
   25.1800   61.0250   21.5280 C   0  0  2  0  0  0  0  0  0  0  0  0
   24.4320   59.9560   22.3250 C   0  0  0  0  0  0  0  0  0  0  0  0
   24.3580   60.2620   23.7720 C   0  0  0  0  0  0  0  0  0  0  0  0
   24.8690   59.6320   24.8400 C   0  0  0  0  0  0  0  0  0  0  0  0
   24.5110   60.3450   25.9380 N   0  0  0  0  0  0  0  0  0  0  0  0
   23.7890   61.3850   25.5540 C   0  0  0  0  0  0  0  0  0  0  0  0
   23.6910   61.3550   24.2470 N   0  0  0  0  0  0  0  0  0  0  0  0
   24.7980   60.9260   20.0990 N   0  0  0  0  0  0  0  0  0  0  0  0
   24.8930   61.9480   19.2570 C   0  0  0  0  0  0  0  0  0  0  0  0
   25.3130   63.0620   19.5770 O   0  0  0  0  0  0  0  0  0  0  0  0
 66 68  1  0
 68 69  1  0
 74 73  1  0
 75 74  1  0
 74 78  1  0
 65 66  1  0
 66 67  2  0
 73 64  1  0
 82 84  1  0
 64 65  1  1
 64 62  1  0
 85 81  1  0
 81 80  2  0
 81 82  1  0
 86 85  2  0
 86 87  1  0
 88 86  1  0
 87 79  2  0
 76 77  1  0
 77 78  2  0
 79 80  1  0
 79 76  1  0
 76 75  2  0
 62 63  2  0
 69 70  1  0
 70 71  1  0
 70 72  2  0
 82 83  2  0
103105  2  0
 99100  2  0
 95 96  2  0
 90 91  1  0
 90 89  1  0
 93 90  1  0
 94107  1  0
107108  1  0
106107  1  0
 97 95  1  0
 98 97  1  0
101 99  1  0
102101  1  0
103104  1  0
 91 92  2  0
 88 92  1  0
 89 88  2  0
 94 93  1  0
 94 95  1  6
 94106  1  0
 99 98  1  0
102103  1  0
 62 61  1  0
 61 53  1  0
 53 51  1  0
 53 54  1  6
 51 52  2  0
 51 50  1  0
 54 55  1  0
 55 56  1  0
 56 57  1  0
 57 58  1  0
 58 60  2  0
 58 59  1  0
 50 45  1  0
 45 43  1  0
 45 46  1  1
 43 44  2  0
 43 42  1  0
 46 47  1  0
 47 48  1  6
 47 49  1  0
 42 33  1  0
 33 31  1  0
 33 34  1  1
 31 32  2  0
 31 30  1  0
 34 35  1  0
 35 36  2  0
 35 41  1  0
 36 37  1  0
 41 40  2  0
 37 38  2  0
 40 38  1  0
 38 39  1  0
 30 29  1  0
 29 27  1  0
 27 28  2  0
 27 26  1  0
 26 18  1  0
 18 16  1  0
 18 19  1  6
 16 17  2  0
 16 15  1  0
 19 20  1  0
 20 21  2  0
 20 25  1  0
 21 22  1  0
 25 24  2  0
 22 23  2  0
 24 23  1  0
 15  9  1  0
  9  7  1  0
  9 10  1  1
  7  8  2  0
  7  6  1  0
 10 11  1  0
 11 12  1  0
 12 13  1  0
 13 14  1  0
  5  6  1  6
  5118  1  0
  5  3  1  0
118119  2  0
118117  1  0
  3  2  1  0
  3  4  1  1
  2  1  1  0
117110  1  0
110108  1  0
110111  1  1
108109  2  0
111112  1  0
112116  1  0
112113  2  0
116115  2  0
113114  1  0
115114  1  0
M  CHG  3  14   1  60   1  84  -1
M  END
$$$$
