
     RDKit          3D

119126  0  0  0  0  0  0  0  0999 V2000
   22.3815   40.3444   13.3784 C   0  0  0  0  0  0  0  0  0  0  0  0
   22.4526   40.1937   14.9004 C   0  0  0  0  0  0  0  0  0  0  0  0
   22.5159   41.5248   15.7707 C   0  0  1  0  0  0  0  0  0  0  0  0
   23.9224   41.8005   16.2159 C   0  0  0  0  0  0  0  0  0  0  0  0
   21.8667   42.7421   15.0270 C   0  0  2  0  0  0  0  0  0  0  0  0
   22.5070   43.0330   13.7409 N   0  0  0  0  0  0  0  0  0  0  0  0
   23.8037   42.8249   13.5061 C   0  0  0  0  0  0  0  0  0  0  0  0
   24.6016   42.5408   14.4295 O   0  0  0  0  0  0  0  0  0  0  0  0
   24.3485   43.1873   12.1108 C   0  0  2  0  0  0  0  0  0  0  0  0
   23.2852   42.9170   11.0467 C   0  0  0  0  0  0  0  0  0  0  0  0
   23.7773   42.3300    9.7281 C   0  0  0  0  0  0  0  0  0  0  0  0
   24.2333   40.9111    9.9133 C   0  0  0  0  0  0  0  0  0  0  0  0
   24.1299   40.0517    8.6795 C   0  0  0  0  0  0  0  0  0  0  0  0
   24.9008   40.5615    7.5182 N   0  0  0  0  0  4  0  0  0  0  0  0
   25.5256   42.3472   11.8804 N   0  0  0  0  0  0  0  0  0  0  0  0
   25.4450   41.0205   11.6272 C   0  0  0  0  0  0  0  0  0  0  0  0
   24.3720   40.3764   11.6607 O   0  0  0  0  0  0  0  0  0  0  0  0
   26.7296   40.2775   11.5434 C   0  0  1  0  0  0  0  0  0  0  0  0
   26.8724   39.5058   12.8667 C   0  0  0  0  0  0  0  0  0  0  0  0
   26.3160   40.0883   14.1228 C   0  0  0  0  0  0  0  0  0  0  0  0
   26.7227   41.4058   14.5160 C   0  0  0  0  0  0  0  0  0  0  0  0
   26.6629   41.8225   15.8648 C   0  0  0  0  0  0  0  0  0  0  0  0
   26.1178   40.9333   16.7703 C   0  0  0  0  0  0  0  0  0  0  0  0
   25.5846   39.7249   16.3959 C   0  0  0  0  0  0  0  0  0  0  0  0
   25.6316   39.3291   15.0530 C   0  0  0  0  0  0  0  0  0  0  0  0
   26.7883   39.3787   10.3961 N   0  0  0  0  0  0  0  0  0  0  0  0
   27.2426   39.7439    9.1686 C   0  0  0  0  0  0  0  0  0  0  0  0
   27.3611   40.9517    8.8641 O   0  0  0  0  0  0  0  0  0  0  0  0
   27.2552   38.6877    8.0922 C   0  0  0  0  0  0  0  0  0  0  0  0
   26.4610   37.4968    8.3690 N   0  0  0  0  0  0  0  0  0  0  0  0
   26.9380   36.3845    8.9153 C   0  0  0  0  0  0  0  0  0  0  0  0
   28.1307   36.1842    9.1845 O   0  0  0  0  0  0  0  0  0  0  0  0
   25.9213   35.2463    9.1415 C   0  0  1  0  0  0  0  0  0  0  0  0
   26.3942   34.9869   10.9579 C   0  0  0  0  0  0  0  0  0  0  0  0
   26.8973   36.4242   11.1762 C   0  0  0  0  0  0  0  0  0  0  0  0
   26.7288   37.3677   10.1519 C   0  0  0  0  0  0  0  0  0  0  0  0
   27.6474   38.4303   10.0422 C   0  0  0  0  0  0  0  0  0  0  0  0
   28.3509   38.8246   11.1455 C   0  0  0  0  0  0  0  0  0  0  0  0
   28.5975   40.1606   11.4362 O   0  0  0  0  0  0  0  0  0  0  0  0
   28.5381   37.9131   12.2093 C   0  0  0  0  0  0  0  0  0  0  0  0
   27.8363   36.6539   12.1878 C   0  0  0  0  0  0  0  0  0  0  0  0
   24.5860   35.7692    9.4579 N   0  0  0  0  0  0  0  0  0  0  0  0
   24.2502   36.5449   10.5293 C   0  0  0  0  0  0  0  0  0  0  0  0
   24.9570   36.6815   11.5234 O   0  0  0  0  0  0  0  0  0  0  0  0
   22.7924   37.0244   10.5721 C   0  0  1  0  0  0  0  0  0  0  0  0
   22.0633   36.6516   11.8711 C   0  0  0  0  0  0  0  0  0  0  0  0
   23.0078   36.3496   13.1198 C   0  0  1  0  0  0  0  0  0  0  0  0
   23.8845   35.1493   12.9127 C   0  0  0  0  0  0  0  0  0  0  0  0
   23.8851   37.5637   13.4513 C   0  0  0  0  0  0  0  0  0  0  0  0
   22.7759   38.4608   10.3357 N   0  0  0  0  0  0  0  0  0  0  0  0
   22.2021   39.0268    9.2554 C   0  0  0  0  0  0  0  0  0  0  0  0
   21.3612   38.4243    8.5493 O   0  0  0  0  0  0  0  0  0  0  0  0
   22.3078   40.5310    9.1136 C   0  0  1  0  0  0  0  0  0  0  0  0
   23.3252   40.9146    8.0512 C   0  0  0  0  0  0  0  0  0  0  0  0
   23.4532   39.8888    6.9425 C   0  0  0  0  0  0  0  0  0  0  0  0
   24.5575   38.8943    7.2664 C   0  0  0  0  0  0  0  0  0  0  0  0
   24.2105   37.5894    6.7945 N   0  0  0  0  0  0  0  0  0  0  0  0
   25.1545   36.5646    6.5631 C   0  0  0  0  0  0  0  0  0  0  0  0
   26.0737   36.6663    5.6110 N   0  0  0  0  0  0  0  0  0  0  0  0
   25.0304   35.4602    7.3067 N   0  0  0  0  0  4  0  0  0  0  0  0
   21.0000   41.1726    8.8836 N   0  0  0  0  0  0  0  0  0  0  0  0
   19.7746   41.1923    9.4277 C   0  0  0  0  0  0  0  0  0  0  0  0
   19.4896   40.4315   10.3678 O   0  0  0  0  0  0  0  0  0  0  0  0
   18.6252   41.5307    8.4348 C   0  0  1  0  0  0  0  0  0  0  0  0
   17.8616   40.3633    8.0919 N   0  0  0  0  0  0  0  0  0  0  0  0
   18.3615   39.1527    8.1345 C   0  0  0  0  0  0  0  0  0  0  0  0
   18.2878   38.4709    9.1714 O   0  0  0  0  0  0  0  0  0  0  0  0
   19.2889   38.7091    7.0103 C   0  0  0  0  0  0  0  0  0  0  0  0
   20.6869   38.6222    7.3202 N   0  0  0  0  0  0  0  0  0  0  0  0
   21.2216   37.3966    7.6540 C   0  0  0  0  0  0  0  0  0  0  0  0
   22.7399   37.3398    7.5879 C   0  0  0  0  0  0  0  0  0  0  0  0
   20.5863   36.6177    8.3669 O   0  0  0  0  0  0  0  0  0  0  0  0
   17.7389   42.6940    8.9017 C   0  0  0  0  0  0  0  0  0  0  0  0
   17.1816   42.3592   10.2181 N   0  0  0  0  0  0  0  0  0  0  0  0
   17.4054   42.9507   11.3876 C   0  0  0  0  0  0  0  0  0  0  0  0
   16.7144   42.1970   12.3114 C   0  0  0  0  0  0  0  0  0  0  0  0
   16.0262   41.2321   11.6177 N   0  0  0  0  0  0  0  0  0  0  0  0
   16.3359   41.3382   10.3525 N   0  0  0  0  0  0  0  0  0  0  0  0
   16.5538   42.3722   13.7584 C   0  0  0  0  0  0  0  0  0  0  0  0
   15.5706   41.6666   14.4230 C   0  0  0  0  0  0  0  0  0  0  0  0
   15.0902   42.0914   15.6847 C   0  0  0  0  0  0  0  0  0  0  0  0
   13.5970   42.2102   15.8884 C   0  0  0  0  0  0  0  0  0  0  0  0
   12.9293   42.8041   14.9556 O   0  0  0  0  0  0  0  0  0  0  0  0
   13.1151   41.9907   17.0324 O   0  0  0  0  0  1  0  0  0  0  0  0
   15.9407   42.9590   16.4289 C   0  0  0  0  0  0  0  0  0  0  0  0
   16.9026   43.7128   15.7653 C   0  0  0  0  0  0  0  0  0  0  0  0
   17.1324   43.4770   14.4120 C   0  0  0  0  0  0  0  0  0  0  0  0
   17.4788   44.9037   16.4185 C   0  0  0  0  0  0  0  0  0  0  0  0
   17.4814   45.2712   17.7430 C   0  0  0  0  0  0  0  0  0  0  0  0
   18.1404   46.4429   17.7794 N   0  0  0  0  0  0  0  0  0  0  0  0
   18.3876   46.8676   16.5256 N   0  0  0  0  0  0  0  0  0  0  0  0
   18.0103   45.9528   15.6940 N   0  0  0  0  0  0  0  0  0  0  0  0
   18.4247   47.2933   18.9309 C   0  0  0  0  0  0  0  0  0  0  0  0
   19.7371   46.9394   19.6363 C   0  0  1  0  0  0  0  0  0  0  0  0
   20.0979   48.1137   20.5621 C   0  0  0  0  0  0  0  0  0  0  0  0
   19.2643   48.8964   20.9791 O   0  0  0  0  0  0  0  0  0  0  0  0
   21.4397   48.4217   20.6130 N   0  0  0  0  0  0  0  0  0  0  0  0
   22.2989   48.1249   19.4776 C   0  0  0  0  0  0  0  0  0  0  0  0
   23.7225   47.7411   19.8544 C   0  0  0  0  0  0  0  0  0  0  0  0
   24.5543   48.6151   20.1411 O   0  0  0  0  0  0  0  0  0  0  0  0
   24.0602   46.5299   19.5033 N   0  0  0  0  0  0  0  0  0  0  0  0
   24.9880   46.2385   18.4160 C   0  0  0  0  0  0  0  0  0  0  0  0
   26.3999   46.6606   18.7502 C   0  0  0  0  0  0  0  0  0  0  0  0
   27.3066   45.7446   18.5671 N   0  0  0  0  0  0  0  0  0  0  0  0
   26.6652   47.8529   18.8934 O   0  0  0  0  0  0  0  0  0  0  0  0
   20.1927   45.7586   19.4101 O   0  0  0  0  0  0  0  0  0  0  0  0
   20.8061   46.5526   18.7045 N   0  0  0  0  0  0  0  0  0  0  0  0
   21.0665   45.3123   18.6870 C   0  0  0  0  0  0  0  0  0  0  0  0
   20.3609   44.2968   18.8147 O   0  0  0  0  0  0  0  0  0  0  0  0
   22.4230   45.0722   18.0064 C   0  0  1  0  0  0  0  0  0  0  0  0
   23.4794   44.7682   19.0276 C   0  0  0  0  0  0  0  0  0  0  0  0
   24.8137   44.5550   18.5114 C   0  0  0  0  0  0  0  0  0  0  0  0
   25.9391   45.3354   18.4054 C   0  0  0  0  0  0  0  0  0  0  0  0
   26.9820   44.5023   18.3944 N   0  0  0  0  0  0  0  0  0  0  0  0
   26.5727   43.2466   18.3201 C   0  0  0  0  0  0  0  0  0  0  0  0
   25.2520   43.2680   18.2066 N   0  0  0  0  0  0  0  0  0  0  0  0
   22.3128   43.9155   17.0917 N   0  0  0  0  0  0  0  0  0  0  0  0
   21.8544   44.0252   15.8517 C   0  0  0  0  0  0  0  0  0  0  0  0
   21.6340   45.0938   15.3219 O   0  0  0  0  0  0  0  0  0  0  0  0
 66 68  1  0
 68 69  1  0
 74 73  1  0
 75 74  4  0
 74 78  4  0
 65 66  1  0
 66 67  2  0
 73 64  1  0
 82 84  1  0
 64 65  1  1
 64 62  1  0
 85 81  4  0
 81 80  4  0
 81 82  1  0
 86 85  4  0
 86 87  4  0
 88 86  1  0
 87 79  4  0
 76 77  4  0
 77 78  4  0
 79 80  4  0
 79 76  1  0
 76 75  4  0
 62 63  2  0
 69 70  1  0
 70 71  1  0
 70 72  2  0
 82 83  2  0
103105  2  0
 99100  2  0
 95 96  2  0
 90 91  4  0
 90 89  4  0
 93 90  1  0
 94107  1  0
107108  1  0
106107  1  0
 97 95  1  0
 98 97  1  0
101 99  1  0
102101  1  0
103104  1  0
 91 92  4  0
 88 92  4  0
 89 88  4  0
 94 93  1  0
 94 95  1  6
 94106  1  0
 99 98  1  0
102103  1  0
 62 61  1  0
 61 53  1  0
 53 51  1  0
 53 54  1  1
 51 52  2  0
 51 50  1  0
 54 55  1  0
 55 56  1  0
 56 57  1  0
 57 58  1  0
 58 60  2  0
 58 59  1  0
 50 45  1  0
 45 43  1  0
 45 46  1  6
 43 44  2  0
 43 42  1  0
 46 47  1  0
 47 48  1  6
 47 49  1  0
 42 33  1  0
 33 31  1  0
 33 34  1  6
 31 32  2  0
 31 30  1  0
 34 35  1  0
 35 36  4  0
 35 41  4  0
 36 37  4  0
 41 40  4  0
 37 38  4  0
 40 38  4  0
 38 39  1  0
 30 29  1  0
 29 27  1  0
 27 28  2  0
 27 26  1  0
 26 18  1  0
 18 16  1  0
 18 19  1  6
 16 17  2  0
 16 15  1  0
 19 20  1  0
 20 21  4  0
 20 25  4  0
 21 22  4  0
 25 24  4  0
 22 23  4  0
 24 23  4  0
 15  9  1  0
  9  7  1  0
  9 10  1  6
  7  8  2  0
  7  6  1  0
 10 11  1  0
 11 12  1  0
 12 13  1  0
 13 14  1  0
  5  6  1  6
  5118  1  0
  5  3  1  0
118119  2  0
118117  1  0
  3  2  1  0
  3  4  1  1
  2  1  1  0
117110  1  0
110108  1  0
110111  1  6
108109  2  0
111112  1  0
112116  4  0
112113  4  0
116115  4  0
113114  4  0
115114  4  0
M  CHG  3  14   1  60   1  84  -1
M  END
$$$$
