
     RDKit          3D

125134  0  0  0  0  0  0  0  0999 V2000
  -15.0681  -21.1134  -38.8831 C   0  0  0  0  0  0  0  0  0  0  0  0
  -13.7509  -21.0476  -39.5900 C   0  0  0  0  0  0  0  0  0  0  0  0
  -13.4786  -21.8103  -40.4987 O   0  0  0  0  0  0  0  0  0  0  0  0
  -12.8664  -20.1565  -39.1308 N   0  0  0  0  0  0  0  0  0  0  0  0
  -12.2067  -19.2046  -40.0064 C   0  0  0  0  0  0  0  0  0  0  0  0
  -10.7338  -19.3015  -40.1403 C   0  0  0  0  0  0  0  0  0  0  0  0
  -10.1385  -18.4330  -40.8174 O   0  0  0  0  0  0  0  0  0  0  0  0
  -10.2120  -20.5549  -40.0752 N   0  0  0  0  0  0  0  0  0  0  0  0
   -8.7161  -18.6344  -41.3248 C   0  0  2  0  0  0  0  0  0  0  0  0
   -9.2411  -18.3368  -39.9112 C   0  0  0  0  0  0  0  0  0  0  0  0
  -10.4393  -17.5128  -40.0414 N   0  0  0  0  0  0  0  0  0  0  0  0
  -11.6574  -17.7801  -39.5433 C   0  0  0  0  0  0  0  0  0  0  0  0
  -12.4027  -16.6684  -39.8479 C   0  0  0  0  0  0  0  0  0  0  0  0
  -11.5934  -15.7502  -40.4102 N   0  0  0  0  0  0  0  0  0  0  0  0
  -10.3995  -16.2842  -40.5265 N   0  0  0  0  0  0  0  0  0  0  0  0
  -13.8038  -16.3695  -39.5041 C   0  0  0  0  0  0  0  0  0  0  0  0
  -14.3242  -15.0906  -39.7510 C   0  0  0  0  0  0  0  0  0  0  0  0
  -15.4049  -14.6559  -38.8954 C   0  0  0  0  0  0  0  0  0  0  0  0
  -14.9130  -13.6614  -37.7931 C   0  0  0  0  0  0  0  0  0  0  0  0
  -15.7345  -13.7436  -36.8114 O   0  0  0  0  0  0  0  0  0  0  0  0
  -13.6765  -13.5809  -37.6410 O   0  0  0  0  0  1  0  0  0  0  0  0
  -16.2698  -15.6206  -38.5281 C   0  0  0  0  0  0  0  0  0  0  0  0
  -15.7783  -16.9373  -38.2652 C   0  0  0  0  0  0  0  0  0  0  0  0
  -14.4576  -17.1921  -38.5934 C   0  0  0  0  0  0  0  0  0  0  0  0
  -16.4169  -17.7662  -37.2360 C   0  0  0  0  0  0  0  0  0  0  0  0
  -17.6936  -17.7892  -36.7661 C   0  0  0  0  0  0  0  0  0  0  0  0
  -17.6918  -18.6958  -35.7832 N   0  0  0  0  0  0  0  0  0  0  0  0
  -16.4712  -19.1109  -35.5009 N   0  0  0  0  0  0  0  0  0  0  0  0
  -15.6631  -18.5485  -36.3960 N   0  0  0  0  0  0  0  0  0  0  0  0
  -18.7717  -19.0343  -34.8856 C   0  0  0  0  0  0  0  0  0  0  0  0
  -19.6149  -20.2030  -35.3795 C   0  0  2  0  0  0  0  0  0  0  0  0
  -18.5285  -20.9722  -33.6682 C   0  0  0  0  0  0  0  0  0  0  0  0
  -18.6515  -19.8745  -33.2683 O   0  0  0  0  0  0  0  0  0  0  0  0
  -17.6228  -21.2654  -34.6204 N   0  0  0  0  0  0  0  0  0  0  0  0
  -17.9147  -22.2738  -35.6359 C   0  0  0  0  0  0  0  0  0  0  0  0
  -16.8069  -22.2832  -36.6746 C   0  0  0  0  0  0  0  0  0  0  0  0
  -15.6397  -22.0421  -36.3092 O   0  0  0  0  0  0  0  0  0  0  0  0
  -17.0434  -23.0288  -37.7843 N   0  0  0  0  0  0  0  0  0  0  0  0
  -16.0330  -23.4198  -38.6319 C   0  0  0  0  0  0  0  0  0  0  0  0
  -16.4175  -24.4527  -39.7217 C   0  0  0  0  0  0  0  0  0  0  0  0
  -16.9308  -23.9826  -40.8140 N   0  0  0  0  0  0  0  0  0  0  0  0
  -15.7880  -25.5291  -39.7108 O   0  0  0  0  0  0  0  0  0  0  0  0
  -18.8431  -21.2310  -36.0201 N   0  0  1  0  0  4  0  0  0  0  0  0
  -19.4028  -22.2613  -35.8072 O   0  0  0  0  0  0  0  0  0  0  0  0
  -19.3507  -22.1829  -37.0801 C   0  0  0  0  0  0  0  0  0  0  0  0
  -20.2376  -21.6520  -37.7951 O   0  0  0  0  0  0  0  0  0  0  0  0
  -18.4118  -23.1086  -37.8632 C   0  0  1  0  0  0  0  0  0  0  0  0
  -19.1249  -24.3699  -38.3874 C   0  0  0  0  0  0  0  0  0  0  0  0
  -20.1785  -24.8396  -37.4127 C   0  0  0  0  0  0  0  0  0  0  0  0
  -20.2480  -26.1343  -36.8594 C   0  0  0  0  0  0  0  0  0  0  0  0
  -21.5359  -26.5549  -37.1188 N   0  0  0  0  0  0  0  0  0  0  0  0
  -22.2760  -25.4846  -37.4603 C   0  0  0  0  0  0  0  0  0  0  0  0
  -21.5007  -24.4601  -37.4841 N   0  0  0  0  0  0  0  0  0  0  0  0
  -17.8004  -22.3653  -38.9959 N   0  0  0  0  0  0  0  0  0  0  0  0
  -16.4770  -22.2957  -39.1506 C   0  0  0  0  0  0  0  0  0  0  0  0
  -15.7242  -22.2549  -38.1103 O   0  0  0  0  0  0  0  0  0  0  0  0
  -15.9861  -21.4749  -40.3420 C   0  0  1  0  0  0  0  0  0  0  0  0
  -13.7146  -20.3441  -41.3957 C   0  0  0  0  0  0  0  0  0  0  0  0
  -12.5396  -19.5648  -41.8753 C   0  0  0  0  0  0  0  0  0  0  0  0
  -12.5403  -18.1284  -41.3152 C   0  0  0  0  0  0  0  0  0  0  0  0
  -12.2573  -17.4572  -42.4307 N   0  0  0  0  0  0  0  0  0  0  0  0
  -11.4276  -18.1510  -43.2750 C   0  0  0  0  0  0  0  0  0  0  0  0
  -10.5801  -17.7395  -44.3114 C   0  0  0  0  0  0  0  0  0  0  0  0
   -9.6983  -18.6829  -44.8238 C   0  0  0  0  0  0  0  0  0  0  0  0
   -9.5211  -19.9078  -44.1370 C   0  0  0  0  0  0  0  0  0  0  0  0
  -10.4913  -20.3976  -43.2425 C   0  0  0  0  0  0  0  0  0  0  0  0
  -11.3648  -19.4651  -42.6931 C   0  0  0  0  0  0  0  0  0  0  0  0
  -14.7131  -21.9704  -40.9063 N   0  0  0  0  0  0  0  0  0  0  0  0
  -14.6163  -22.5016  -42.1348 C   0  0  0  0  0  0  0  0  0  0  0  0
  -15.6656  -22.7199  -42.8561 O   0  0  0  0  0  0  0  0  0  0  0  0
  -13.2318  -22.9287  -42.5928 C   0  0  2  0  0  0  0  0  0  0  0  0
  -12.2477  -21.7593  -42.3919 C   0  0  0  0  0  0  0  0  0  0  0  0
  -12.7229  -20.4854  -42.9624 C   0  0  0  0  0  0  0  0  0  0  0  0
  -13.9090  -20.6819  -43.9390 C   0  0  0  0  0  0  0  0  0  0  0  0
  -15.1892  -20.0953  -43.4496 C   0  0  0  0  0  0  0  0  0  0  0  0
  -16.3899  -20.8545  -43.8489 N   0  0  0  0  0  4  0  0  0  0  0  0
  -13.3617  -23.2412  -44.0078 N   0  0  0  0  0  0  0  0  0  0  0  0
  -13.3618  -22.3014  -44.9618 C   0  0  0  0  0  0  0  0  0  0  0  0
  -12.6516  -21.3060  -44.8441 O   0  0  0  0  0  0  0  0  0  0  0  0
  -13.7316  -22.7845  -46.3549 C   0  0  1  0  0  0  0  0  0  0  0  0
  -14.8501  -21.1127  -46.3729 C   0  0  0  0  0  0  0  0  0  0  0  0
  -13.6542  -20.2391  -46.6384 C   0  0  0  0  0  0  0  0  0  0  0  0
  -12.6210  -20.3127  -45.6702 C   0  0  0  0  0  0  0  0  0  0  0  0
  -11.4896  -19.5853  -45.8715 C   0  0  0  0  0  0  0  0  0  0  0  0
  -11.1630  -19.0341  -47.0942 C   0  0  0  0  0  0  0  0  0  0  0  0
  -12.0750  -19.1597  -48.1114 C   0  0  0  0  0  0  0  0  0  0  0  0
  -13.2681  -19.9080  -47.9061 C   0  0  0  0  0  0  0  0  0  0  0  0
  -12.9026  -22.1562  -47.3629 N   0  0  0  0  0  0  0  0  0  0  0  0
  -11.7177  -22.7089  -47.7187 C   0  0  0  0  0  0  0  0  0  0  0  0
  -11.2192  -23.6658  -47.0893 O   0  0  0  0  0  0  0  0  0  0  0  0
  -10.9115  -22.0088  -48.7771 C   0  0  0  0  0  0  0  0  0  0  0  0
  -11.3494  -20.6820  -49.2191 N   0  0  0  0  0  0  0  0  0  0  0  0
  -12.2035  -20.4807  -50.2051 C   0  0  0  0  0  0  0  0  0  0  0  0
  -12.8896  -21.3341  -50.7237 O   0  0  0  0  0  0  0  0  0  0  0  0
  -12.4945  -18.9900  -50.4777 C   0  0  2  0  0  0  0  0  0  0  0  0
  -10.9820  -19.8705  -48.1052 C   0  0  0  0  0  0  0  0  0  0  0  0
  -10.2678  -19.5541  -49.4054 C   0  0  0  0  0  0  0  0  0  0  0  0
   -9.2105  -20.4015  -49.8611 C   0  0  0  0  0  0  0  0  0  0  0  0
   -7.9082  -19.9413  -49.8815 C   0  0  0  0  0  0  0  0  0  0  0  0
   -7.6737  -18.5347  -49.9202 C   0  0  0  0  0  0  0  0  0  0  0  0
   -6.4489  -18.1366  -49.5951 O   0  0  0  0  0  0  0  0  0  0  0  0
   -8.7699  -17.6901  -49.9046 C   0  0  0  0  0  0  0  0  0  0  0  0
  -10.0604  -18.1756  -49.7239 C   0  0  0  0  0  0  0  0  0  0  0  0
  -12.4577  -18.2146  -49.2375 N   0  0  0  0  0  0  0  0  0  0  0  0
  -13.1474  -18.5420  -48.1248 C   0  0  0  0  0  0  0  0  0  0  0  0
  -14.2212  -19.1941  -48.1987 O   0  0  0  0  0  0  0  0  0  0  0  0
  -12.9179  -17.6675  -46.9167 C   0  0  1  0  0  0  0  0  0  0  0  0
  -14.2478  -16.9887  -46.4631 C   0  0  0  0  0  0  0  0  0  0  0  0
  -15.5001  -17.8467  -46.6025 C   0  0  2  0  0  0  0  0  0  0  0  0
  -15.2117  -19.3747  -46.4664 C   0  0  0  0  0  0  0  0  0  0  0  0
  -16.1842  -17.5743  -47.9374 C   0  0  0  0  0  0  0  0  0  0  0  0
  -12.3417  -18.5517  -45.9291 N   0  0  0  0  0  0  0  0  0  0  0  0
  -11.1218  -18.3509  -45.3818 C   0  0  0  0  0  0  0  0  0  0  0  0
  -12.8272  -20.1309  -44.4517 O   0  0  0  0  0  0  0  0  0  0  0  0
  -10.5833  -19.4460  -44.4992 C   0  0  2  0  0  0  0  0  0  0  0  0
  -11.9489  -19.5500  -43.7841 C   0  0  0  0  0  0  0  0  0  0  0  0
  -13.0477  -18.9043  -44.6235 C   0  0  0  0  0  0  0  0  0  0  0  0
  -14.1812  -18.2916  -43.7861 C   0  0  0  0  0  0  0  0  0  0  0  0
  -15.5282  -18.5183  -44.3227 N   0  0  0  0  0  0  0  0  0  0  0  0
  -15.9919  -17.9158  -45.4089 C   0  0  0  0  0  0  0  0  0  0  0  0
  -17.1790  -18.2670  -45.8724 N   0  0  0  0  0  0  0  0  0  0  0  0
  -15.4152  -16.8126  -45.8682 N   0  0  0  0  0  4  0  0  0  0  0  0
   -9.5974  -18.7923  -43.6122 N   0  0  0  0  0  0  0  0  0  0  0  0
   -9.8641  -19.2360  -42.2111 C   0  0  0  0  0  0  0  0  0  0  0  0
  -10.4063  -20.2108  -41.7975 O   0  0  0  0  0  0  0  0  0  0  0  0
123115  1  0
124123  1  0
115113  1  0
115116  1  1
113114  2  0
113112  1  0
116117  1  0
117118  1  0
118119  1  0
119120  1  0
120122  2  0
120121  1  0
112107  1  0
107105  1  0
107108  1  6
105106  2  0
105104  1  0
108109  1  0
109110  1  1
109111  1  0
 95104  1  0
 93 95  1  0
 95 96  1  6
 93 94  2  0
 92 93  1  0
 96 97  1  0
 97 98  4  0
 97103  4  0
 98 99  4  0
103102  4  0
 99100  4  0
102100  4  0
100101  1  0
 91 92  1  0
 89 91  1  0
 89 90  2  0
 88 89  1  0
 80 88  1  0
 78 80  1  0
 80 81  1  1
 78 79  2  0
 77 78  1  0
 81 82  1  0
 82 83  4  0
 82 87  4  0
 83 84  4  0
 87 86  4  0
 84 85  4  0
 86 85  4  0
 71 77  1  0
 69 71  1  0
 71 72  1  6
 69 70  2  0
 68 69  1  0
 72 73  1  0
 73 74  1  0
 74 75  1  0
 75 76  1  0
 57 68  1  0
 55 57  1  0
 57 58  1  6
 55 56  2  0
 54 55  1  0
 58 59  1  0
 59 60  4  0
 59 67  4  0
 60 61  4  0
 67 62  4  0
 67 66  4  0
 62 61  4  0
 62 63  4  0
 66 65  4  0
 63 64  4  0
 65 64  4  0
 47 54  1  0
 45 47  1  0
 47 48  1  1
 45 46  1  0
 44 45  1  0
 43 45  1  0
 48 49  1  0
 49 53  4  0
 49 50  4  0
 53 52  4  0
 50 51  4  0
 51 52  4  0
 43 44  1  6
  6  5  1  0
  5  4  1  0
 11 10  1  0
 12 11  4  0
 11 15  4  0
  8  6  1  0
  6  7  2  0
 10  9  1  0
 19 21  1  0
  9  8  1  6
  9124  1  0
 22 18  4  0
 18 17  4  0
 18 19  1  0
 23 22  4  0
 23 24  4  0
 25 23  1  0
 24 16  4  0
 13 14  4  0
 14 15  4  0
 16 17  4  0
 16 13  1  0
 13 12  4  0
124125  2  0
  4  2  1  0
  2  1  1  0
  2  3  2  0
 19 20  2  0
 40 42  2  0
 36 37  2  0
 32 33  2  0
 27 28  4  0
 27 26  4  0
 30 27  1  0
 31 43  1  0
 34 32  1  0
 35 34  1  0
 38 36  1  0
 39 38  1  0
 40 41  1  0
 28 29  4  0
 25 29  4  0
 26 25  4  0
 31 30  1  0
 31 32  1  6
 36 35  1  0
 39 40  1  0
M  CHG  4  21  -1  43   1  76   1 122   1
M  END
$$$$
