
     RDKit          3D

 30 33  0  0  0  0  0  0  0  0999 V2000
   -0.4250  -13.0680   63.0220 N   0  0  0  0  0  0  0  0  0  0  0  0
   -0.8310  -14.3570   62.9500 C   0  0  0  0  0  0  0  0  0  0  0  0
   -0.3520  -15.1010   62.0000 N   0  0  0  0  0  4  0  0  0  0  0  0
   -1.8360  -14.8990   63.8680 C   0  0  0  0  0  0  0  0  0  0  0  0
   -2.5660  -16.0030   63.4120 C   0  0  0  0  0  0  0  0  0  0  0  0
   -3.5680  -16.5670   64.1760 C   0  0  0  0  0  0  0  0  0  0  0  0
   -3.8770  -16.0460   65.4240 C   0  0  0  0  0  0  0  0  0  0  0  0
   -4.9060  -16.6130   66.1480 N   0  0  0  0  0  0  0  0  0  0  0  0
   -5.3690  -16.0930   67.4240 C   0  0  0  0  0  0  0  0  0  0  0  0
   -4.7260  -16.7960   68.5720 C   0  0  0  0  0  0  0  0  0  0  0  0
   -5.1410  -16.6680   69.8510 N   0  0  0  0  0  0  0  0  0  0  0  0
   -4.3470  -17.4970   70.5900 C   0  0  0  0  0  0  0  0  0  0  0  0
   -4.4950  -17.6760   72.0470 C   0  0  0  0  0  0  0  0  0  0  0  0
   -5.5010  -17.0080   72.7510 C   0  0  0  0  0  0  0  0  0  0  0  0
   -5.6710  -17.2220   74.1140 C   0  0  0  0  0  0  0  0  0  0  0  0
   -4.8180  -18.0690   74.7960 C   0  0  0  0  0  0  0  0  0  0  0  0
   -3.8390  -18.7630   74.1040 C   0  0  0  0  0  0  0  0  0  0  0  0
   -3.6690  -18.5620   72.7390 C   0  0  0  0  0  0  0  0  0  0  0  0
   -3.5160  -18.1520   69.7130 C   0  0  0  0  0  0  0  0  0  0  0  0
   -3.7580  -17.6950   68.4400 N   0  0  0  0  0  0  0  0  0  0  0  0
   -3.1370  -14.9650   65.9240 C   0  0  0  0  0  0  0  0  0  0  0  0
   -2.1500  -14.3780   65.1410 C   0  0  0  0  0  0  0  0  0  0  0  0
   -1.4100  -13.2890   65.5320 O   0  0  0  0  0  0  0  0  0  0  0  0
   -1.4960  -12.7810   66.8680 C   0  0  0  0  0  0  0  0  0  0  0  0
   -2.7300  -11.9500   67.0700 C   0  0  0  0  0  0  0  0  0  0  0  0
   -3.3840  -11.9140   68.2980 C   0  0  0  0  0  0  0  0  0  0  0  0
   -4.5020  -11.1120   68.4620 C   0  0  0  0  0  0  0  0  0  0  0  0
   -4.9540  -10.3880   67.3790 C   0  0  0  0  0  0  0  0  0  0  0  0
   -4.3750  -10.4380   66.1670 N   0  0  0  0  0  0  0  0  0  0  0  0
   -3.2700  -11.1930   66.0440 C   0  0  0  0  0  0  0  0  0  0  0  0
  9 10  1  0
 10 11  2  0
 10 20  1  0
 19 12  2  0
 20 19  1  0
 13 18  2  0
 12 13  1  0
 13 14  1  0
 14 15  2  0
 15 16  1  0
 18 17  1  0
 21 22  2  0
  7 21  1  0
 22  4  1  0
 22 23  1  0
 23 24  1  0
 24 25  1  0
 25 26  2  0
 26 27  1  0
 27 28  2  0
 28 29  1  0
  2  1  1  0
  2  3  2  0
  4  2  1  0
  5  4  2  0
  6  5  1  0
  7  6  2  0
  8  7  1  0
  8  9  1  0
 11 12  1  0
 16 17  2  0
 25 30  1  0
 29 30  2  0
M  CHG  1   3   1
M  END
$$$$
