
     RDKit          3D

 39 43  0  0  0  0  0  0  0  0999 V2000
  -21.2407    4.4398   -0.8937 O   0  0  0  0  0  0  0  0  0  0  0  0
  -20.1185    5.2665   -0.9449 C   0  0  0  0  0  0  0  0  0  0  0  0
  -20.3412    6.4371    0.0282 C   0  0  2  0  0  0  0  0  0  0  0  0
  -21.1723    7.3745   -0.5948 O   0  0  0  0  0  0  0  0  0  0  0  0
  -20.6534    7.8055   -1.8696 C   0  0  1  0  0  0  0  0  0  0  0  0
  -21.7977    9.0775   -2.4975 S   0  0  0  0  0  0  0  0  0  0  0  0
  -23.1639    9.1987   -1.3831 C   0  0  0  0  0  0  0  0  0  0  0  0
  -23.1831   10.5494   -0.6741 C   0  0  1  0  0  0  0  0  0  0  0  0
  -24.5049   10.8314   -0.2560 O   0  0  0  0  0  0  0  0  0  0  0  0
  -22.2048   10.4807    0.5541 C   0  0  0  0  0  0  0  0  0  0  0  0
  -20.8079   10.6368    0.2258 N   0  0  0  0  0  0  0  0  0  0  0  0
  -19.7677   10.4364    1.1628 C   0  0  0  0  0  0  0  0  0  0  0  0
  -18.5503   10.5260    0.4335 C   0  0  0  0  0  0  0  0  0  0  0  0
  -17.1494   10.3780    0.9205 C   0  0  0  0  0  0  0  0  0  0  0  0
  -16.2337   11.3997    1.0401 C   0  0  0  0  0  0  0  0  0  0  0  0
  -14.8259   11.1682    1.1110 C   0  0  0  0  0  0  0  0  0  0  0  0
  -14.3131    9.8664    1.1369 C   0  0  0  0  0  0  0  0  0  0  0  0
  -15.2442    8.8133    1.1163 C   0  0  0  0  0  0  0  0  0  0  0  0
  -14.7870    7.5748    1.1103 F   0  0  0  0  0  0  0  0  0  0  0  0
  -16.6409    9.0823    1.0116 C   0  0  0  0  0  0  0  0  0  0  0  0
  -18.9791   10.9918   -0.8609 N   0  0  0  0  0  0  0  0  0  0  0  0
  -20.2390   10.9516   -0.9449 N   0  0  0  0  0  0  0  0  0  0  0  0
  -19.3151    8.5124   -1.6934 C   0  0  1  0  0  0  0  0  0  0  0  0
  -19.5296    9.8501   -1.2820 O   0  0  0  0  0  0  0  0  0  0  0  0
  -18.4006    7.8101   -0.7705 C   0  0  2  0  0  0  0  0  0  0  0  0
  -17.1994    7.4333   -1.1528 N   0  0  0  0  0  0  0  0  0  0  0  0
  -16.0663    7.4087   -0.2965 C   0  0  0  0  0  0  0  0  0  0  0  0
  -14.9593    7.4799   -1.0851 C   0  0  0  0  0  0  0  0  0  0  0  0
  -13.5703    7.7205   -0.7131 C   0  0  0  0  0  0  0  0  0  0  0  0
  -12.5414    7.7986   -1.6568 C   0  0  0  0  0  0  0  0  0  0  0  0
  -11.2295    7.8709   -1.2675 C   0  0  0  0  0  0  0  0  0  0  0  0
  -10.8427    7.9364    0.0650 C   0  0  0  0  0  0  0  0  0  0  0  0
  -11.9009    7.8923    0.9819 C   0  0  0  0  0  0  0  0  0  0  0  0
  -11.5864    7.9037    2.3066 F   0  0  0  0  0  0  0  0  0  0  0  0
  -13.2020    7.8159    0.6347 C   0  0  0  0  0  0  0  0  0  0  0  0
  -15.4210    7.3674   -2.3818 N   0  0  0  0  0  0  0  0  0  0  0  0
  -16.6973    7.2345   -2.3670 N   0  0  0  0  0  0  0  0  0  0  0  0
  -19.0216    7.1011    0.3956 C   0  0  2  0  0  0  0  0  0  0  0  0
  -18.0456    6.1635    0.7754 O   0  0  0  0  0  0  0  0  0  0  0  0
  3 38  1  0
 25 38  1  0
 38 39  1  1
  5 23  1  0
  5  4  1  0
  5  6  1  1
  8  7  1  0
  7  6  1  0
 10  8  1  0
 11 10  1  0
 14 20  4  0
 13 14  1  0
 14 15  4  0
 20 18  4  0
 18 17  4  0
 18 19  1  0
 16 17  4  0
 15 16  4  0
 29 35  4  0
 35 33  4  0
 29 30  4  0
 28 29  1  0
 30 31  4  0
 31 32  4  0
 33 32  4  0
 33 34  1  0
 27 28  4  0
 28 36  4  0
 26 27  4  0
  3  2  1  1
  4  3  1  0
 23 25  1  0
 25 26  1  1
 23 24  1  6
  2  1  1  0
  8  9  1  1
 12 11  4  0
 12 13  4  0
 36 37  4  0
 37 26  4  0
 11 22  4  0
 22 21  4  0
 21 13  4  0
M  END
$$$$
