
     RDKit          3D

 39 43  0  0  0  0  0  0  0  0999 V2000
  -21.7760    5.1290   -0.5070 O   0  0  0  0  0  0  0  0  0  0  0  0
  -20.4150    5.2950   -0.1920 C   0  0  0  0  0  0  0  0  0  0  0  0
  -19.8820    6.4400   -1.0910 C   0  0  1  0  0  0  0  0  0  0  0  0
  -20.5090    7.6390   -0.6770 O   0  0  0  0  0  0  0  0  0  0  0  0
  -20.1590    8.7600   -1.4810 C   0  0  1  0  0  0  0  0  0  0  0  0
  -21.0930   10.1620   -0.8260 S   0  0  0  0  0  0  0  0  0  0  0  0
  -22.7660    9.6360   -1.1750 C   0  0  0  0  0  0  0  0  0  0  0  0
  -23.7490    9.9280   -0.0530 C   0  0  2  0  0  0  0  0  0  0  0  0
  -23.3570    9.2370    1.1030 O   0  0  0  0  0  0  0  0  0  0  0  0
  -25.1190    9.3770   -0.5030 C   0  0  0  0  0  0  0  0  0  0  0  0
  -26.2420    9.7250    0.3480 N   0  0  0  0  0  0  0  0  0  0  0  0
  -26.8070    8.9250    1.3520 C   0  0  0  0  0  0  0  0  0  0  0  0
  -27.8510    9.6370    1.9200 C   0  0  0  0  0  0  0  0  0  0  0  0
  -28.7850    9.3050    3.0000 C   0  0  0  0  0  0  0  0  0  0  0  0
  -28.6190    8.1810    3.8070 C   0  0  0  0  0  0  0  0  0  0  0  0
  -29.4980    7.8530    4.8480 C   0  0  0  0  0  0  0  0  0  0  0  0
  -30.6160    8.6240    5.1370 C   0  0  0  0  0  0  0  0  0  0  0  0
  -30.7820    9.7520    4.3250 C   0  0  0  0  0  0  0  0  0  0  0  0
  -31.8410   10.5370    4.5560 F   0  0  0  0  0  0  0  0  0  0  0  0
  -29.9120   10.0930    3.2900 C   0  0  0  0  0  0  0  0  0  0  0  0
  -27.8640   10.8490    1.2110 N   0  0  0  0  0  0  0  0  0  0  0  0
  -26.9560   10.8860    0.3050 N   0  0  0  0  0  0  0  0  0  0  0  0
  -18.6890    9.0550   -1.2550 C   0  0  2  0  0  0  0  0  0  0  0  0
  -18.2190   10.0440   -2.1340 O   0  0  0  0  0  0  0  0  0  0  0  0
  -17.8720    7.7960   -1.6490 C   0  0  1  0  0  0  0  0  0  0  0  0
  -16.4330    7.9540   -1.5500 N   0  0  0  0  0  0  0  0  0  0  0  0
  -15.7010    8.2810   -0.4270 C   0  0  0  0  0  0  0  0  0  0  0  0
  -14.3620    8.3150   -0.8040 C   0  0  0  0  0  0  0  0  0  0  0  0
  -13.1850    8.5630   -0.0550 C   0  0  0  0  0  0  0  0  0  0  0  0
  -11.9410    8.7720   -0.6720 C   0  0  0  0  0  0  0  0  0  0  0  0
  -10.7710    8.9970    0.0610 C   0  0  0  0  0  0  0  0  0  0  0  0
  -10.7730    9.0140    1.4570 C   0  0  0  0  0  0  0  0  0  0  0  0
  -12.0160    8.7790    2.0390 C   0  0  0  0  0  0  0  0  0  0  0  0
  -12.0430    8.7270    3.3860 F   0  0  0  0  0  0  0  0  0  0  0  0
  -13.1970    8.5260    1.3390 C   0  0  0  0  0  0  0  0  0  0  0  0
  -14.3660    7.9710   -2.1580 N   0  0  0  0  0  0  0  0  0  0  0  0
  -15.5550    7.7840   -2.5830 N   0  0  0  0  0  0  0  0  0  0  0  0
  -18.3720    6.5730   -0.8440 C   0  0  1  0  0  0  0  0  0  0  0  0
  -18.1400    6.8070    0.5500 O   0  0  0  0  0  0  0  0  0  0  0  0
 29 30  2  0
 28 29  1  0
 29 35  1  0
 30 31  1  0
 33 32  1  0
 31 32  2  0
 35 33  2  0
 33 34  1  0
 27 28  2  0
 28 36  1  0
 26 27  1  0
 25 38  1  0
  3 38  1  0
 38 39  1  1
 23 25  1  0
 25 26  1  1
  5 23  1  0
 23 24  1  6
  8  7  1  0
  7  6  1  0
 13 14  1  0
 14 20  1  0
 14 15  2  0
 20 18  2  0
 18 17  1  0
 18 19  1  0
 16 17  2  0
 15 16  1  0
  3  2  1  1
  4  3  1  0
  5  4  1  0
  5  6  1  1
  2  1  1  0
 10  8  1  0
  8  9  1  1
 11 10  1  0
 12 13  2  0
 13 21  1  0
 12 11  1  0
 36 37  2  0
 37 26  1  0
 11 22  1  0
 22 21  2  0
M  END
$$$$
