
     RDKit          3D

 30 33  0  0  0  0  0  0  0  0999 V2000
  -26.2606    9.5308   -3.5505 C   0  0  0  0  0  0  0  0  0  0  0  0
  -24.7983    9.5281   -3.3685 C   0  0  0  0  0  0  0  0  0  0  0  0
  -23.9454    9.5188   -4.4871 C   0  0  0  0  0  0  0  0  0  0  0  0
  -22.5748    9.4858   -4.3397 C   0  0  0  0  0  0  0  0  0  0  0  0
  -21.9450    9.4284   -3.1088 C   0  0  0  0  0  0  0  0  0  0  0  0
  -20.2301    9.0888   -2.9718 S   0  0  0  0  0  0  0  0  0  0  0  0
  -19.8207    9.2619   -1.2184 C   0  0  1  0  0  0  0  0  0  0  0  0
  -20.3585    8.1410   -0.5627 O   0  0  0  0  0  0  0  0  0  0  0  0
  -19.8526    6.8888   -1.0993 C   0  0  2  0  0  0  0  0  0  0  0  0
  -20.5990    5.7470   -0.4371 C   0  0  0  0  0  0  0  0  0  0  0  0
  -21.9698    5.8819   -0.5858 O   0  0  0  0  0  0  0  0  0  0  0  0
  -18.3450    6.8644   -0.9120 C   0  0  2  0  0  0  0  0  0  0  0  0
  -18.0345    6.8540    0.4824 O   0  0  0  0  0  0  0  0  0  0  0  0
  -17.7464    8.1106   -1.5164 C   0  0  2  0  0  0  0  0  0  0  0  0
  -16.3145    8.1041   -1.4669 N   0  0  0  0  0  0  0  0  0  0  0  0
  -15.4888    8.1712   -0.3905 C   0  0  0  0  0  0  0  0  0  0  0  0
  -14.1845    8.2375   -0.8343 C   0  0  0  0  0  0  0  0  0  0  0  0
  -12.9434    8.3005   -0.1037 C   0  0  0  0  0  0  0  0  0  0  0  0
  -11.7222    8.3555   -0.7982 C   0  0  0  0  0  0  0  0  0  0  0  0
  -10.5078    8.3826   -0.0639 C   0  0  0  0  0  0  0  0  0  0  0  0
  -10.4658    8.3852    1.2623 C   0  0  0  0  0  0  0  0  0  0  0  0
  -11.6705    8.4197    1.8842 C   0  0  0  0  0  0  0  0  0  0  0  0
  -11.6500    8.4944    3.2620 F   0  0  0  0  0  0  0  0  0  0  0  0
  -12.9018    8.3523    1.2815 C   0  0  0  0  0  0  0  0  0  0  0  0
  -14.3096    8.1860   -2.2212 N   0  0  0  0  0  0  0  0  0  0  0  0
  -15.5211    8.1402   -2.5624 N   0  0  0  0  0  0  0  0  0  0  0  0
  -18.2922    9.3762   -0.9710 C   0  0  2  0  0  0  0  0  0  0  0  0
  -18.1796    9.3843    0.3954 O   0  0  0  0  0  0  0  0  0  0  0  0
  -22.7704    9.4895   -2.0026 C   0  0  0  0  0  0  0  0  0  0  0  0
  -24.1534    9.5294   -2.1483 C   0  0  0  0  0  0  0  0  0  0  0  0
 18 24  4  0
 18 19  4  0
 17 18  1  0
 24 22  4  0
 22 21  4  0
 22 23  1  0
 20 21  4  0
 19 20  4  0
  2  1  1  0
  3  2  4  0
 30  2  4  0
  4  3  4  0
  5  4  4  0
 29 30  4  0
  5 29  4  0
  6  5  1  0
 27  7  1  0
  7  8  1  0
  7  6  1  1
  9 10  1  1
 12  9  1  0
  9  8  1  0
 10 11  1  0
 14 12  1  0
 12 13  1  1
 14 27  1  0
 14 15  1  1
 16 17  4  0
 16 15  4  0
 17 25  4  0
 27 28  1  6
 15 26  4  0
 25 26  4  0
M  END
$$$$
