
     RDKit          3D

 31 34  0  0  0  0  0  0  0  0999 V2000
  -25.3940    9.0230   -5.8050 C   0  0  0  0  0  0  0  0  0  0  0  0
  -24.2640    9.2990   -4.8020 C   0  0  0  0  0  0  0  0  0  0  0  0
  -23.8910   10.6180   -4.4340 C   0  0  0  0  0  0  0  0  0  0  0  0
  -22.8460   10.8790   -3.5040 C   0  0  0  0  0  0  0  0  0  0  0  0
  -22.1380    9.8380   -2.8870 C   0  0  0  0  0  0  0  0  0  0  0  0
  -20.8070   10.1760   -1.7130 S   0  0  0  0  0  0  0  0  0  0  0  0
  -19.7670    8.7090   -1.6240 C   0  0  2  0  0  0  0  0  0  0  0  0
  -20.2890    7.7370   -0.7520 O   0  0  0  0  0  0  0  0  0  0  0  0
  -19.6660    6.4610   -0.8600 C   0  0  2  0  0  0  0  0  0  0  0  0
  -20.3540    5.4770    0.0370 C   0  0  0  0  0  0  0  0  0  0  0  0
  -21.7050    5.3710   -0.3020 O   0  0  0  0  0  0  0  0  0  0  0  0
  -18.1920    6.6170   -0.5690 C   0  0  2  0  0  0  0  0  0  0  0  0
  -18.0030    7.0200    0.7570 O   0  0  0  0  0  0  0  0  0  0  0  0
  -17.6190    7.6800   -1.5250 C   0  0  2  0  0  0  0  0  0  0  0  0
  -16.1840    7.8190   -1.3520 N   0  0  0  0  0  0  0  0  0  0  0  0
  -15.4480    8.2280   -0.2360 C   0  0  0  0  0  0  0  0  0  0  0  0
  -14.1180    8.2060   -0.5340 C   0  0  0  0  0  0  0  0  0  0  0  0
  -12.9540    8.4940    0.2380 C   0  0  0  0  0  0  0  0  0  0  0  0
  -11.6870    8.7070   -0.3460 C   0  0  0  0  0  0  0  0  0  0  0  0
  -10.5500    8.9660    0.3850 C   0  0  0  0  0  0  0  0  0  0  0  0
  -10.6100    8.9980    1.7640 C   0  0  0  0  0  0  0  0  0  0  0  0
   -9.5820    9.2370    2.4980 F   0  0  0  0  0  0  0  0  0  0  0  0
  -11.8940    8.7760    2.3620 C   0  0  0  0  0  0  0  0  0  0  0  0
  -11.9840    8.7920    3.6580 F   0  0  0  0  0  0  0  0  0  0  0  0
  -12.9850    8.5340    1.5860 C   0  0  0  0  0  0  0  0  0  0  0  0
  -14.0880    7.7560   -1.8580 N   0  0  0  0  0  0  0  0  0  0  0  0
  -15.2760    7.5430   -2.3090 N   0  0  0  0  0  0  0  0  0  0  0  0
  -18.2980    9.0300   -1.3950 C   0  0  1  0  0  0  0  0  0  0  0  0
  -17.8780    9.8930   -2.4330 O   0  0  0  0  0  0  0  0  0  0  0  0
  -22.5020    8.5310   -3.2470 C   0  0  0  0  0  0  0  0  0  0  0  0
  -23.5360    8.2720   -4.1770 C   0  0  0  0  0  0  0  0  0  0  0  0
 18 25  2  0
 17 18  1  0
 18 19  1  0
 25 23  1  0
 23 21  2  0
 23 24  1  0
 20 21  1  0
 21 22  1  0
 19 20  2  0
  2  1  1  0
  3  2  2  0
 31  2  1  0
  4  3  1  0
  5  4  2  0
 30 31  2  0
  5 30  1  0
  6  5  1  0
 28  7  1  0
  7  8  1  0
  7  6  1  1
  9 10  1  1
 12  9  1  0
  9  8  1  0
 10 11  1  0
 14 12  1  0
 12 13  1  1
 14 28  1  0
 14 15  1  1
 16 17  2  0
 16 15  1  0
 17 26  1  0
 28 29  1  6
 15 27  1  0
 26 27  2  0
M  END
$$$$
