
     RDKit          3D

 31 34  0  0  0  0  0  0  0  0999 V2000
  -25.5910    9.1640   -5.4840 C   0  0  0  0  0  0  0  0  0  0  0  0
  -24.4160    9.4150   -4.5930 C   0  0  0  0  0  0  0  0  0  0  0  0
  -23.6060    8.3880   -4.1230 C   0  0  0  0  0  0  0  0  0  0  0  0
  -22.5160    8.6470   -3.2740 C   0  0  0  0  0  0  0  0  0  0  0  0
  -22.1880    9.9420   -2.8510 C   0  0  0  0  0  0  0  0  0  0  0  0
  -20.7510   10.2590   -1.7690 S   0  0  0  0  0  0  0  0  0  0  0  0
  -19.7420    8.7500   -1.7770 C   0  0  2  0  0  0  0  0  0  0  0  0
  -20.2500    7.8550   -0.8050 O   0  0  0  0  0  0  0  0  0  0  0  0
  -19.6820    6.5700   -0.9630 C   0  0  2  0  0  0  0  0  0  0  0  0
  -20.3780    5.6070    0.0270 C   0  0  0  0  0  0  0  0  0  0  0  0
  -21.7190    5.4600   -0.3620 O   0  0  0  0  0  0  0  0  0  0  0  0
  -18.1520    6.6810   -0.6470 C   0  0  2  0  0  0  0  0  0  0  0  0
  -17.9660    7.0980    0.6690 O   0  0  0  0  0  0  0  0  0  0  0  0
  -17.5620    7.7510   -1.6110 C   0  0  2  0  0  0  0  0  0  0  0  0
  -16.1400    7.8560   -1.4230 N   0  0  0  0  0  0  0  0  0  0  0  0
  -15.4320    8.2620   -0.2930 C   0  0  0  0  0  0  0  0  0  0  0  0
  -14.0840    8.1780   -0.6480 C   0  0  0  0  0  0  0  0  0  0  0  0
  -12.9040    8.4540    0.1320 C   0  0  0  0  0  0  0  0  0  0  0  0
  -11.6500    8.6170   -0.4800 C   0  0  0  0  0  0  0  0  0  0  0  0
  -10.5130    8.8680    0.2810 C   0  0  0  0  0  0  0  0  0  0  0  0
   -9.3800    9.0260   -0.3310 F   0  0  0  0  0  0  0  0  0  0  0  0
  -10.5530    8.9370    1.6770 C   0  0  0  0  0  0  0  0  0  0  0  0
  -11.8000    8.7450    2.2700 C   0  0  0  0  0  0  0  0  0  0  0  0
  -11.9070    8.7840    3.5800 F   0  0  0  0  0  0  0  0  0  0  0  0
  -12.9450    8.5090    1.5220 C   0  0  0  0  0  0  0  0  0  0  0  0
  -14.0760    7.7420   -1.9800 N   0  0  0  0  0  0  0  0  0  0  0  0
  -15.2580    7.5580   -2.4050 N   0  0  0  0  0  0  0  0  0  0  0  0
  -18.2630    9.1030   -1.4870 C   0  0  1  0  0  0  0  0  0  0  0  0
  -17.7770    9.9100   -2.5260 O   0  0  0  0  0  0  0  0  0  0  0  0
  -23.0010   10.9790   -3.3190 C   0  0  0  0  0  0  0  0  0  0  0  0
  -24.0950   10.7140   -4.1700 C   0  0  0  0  0  0  0  0  0  0  0  0
 18 19  2  0
 17 18  1  0
 18 25  1  0
 19 20  1  0
 20 22  2  0
 20 21  1  0
 22 23  1  0
  2  1  1  0
  3  2  2  0
 31  2  1  0
  4  3  1  0
  5  4  2  0
 30 31  2  0
  5 30  1  0
  6  5  1  0
 28  7  1  0
  7  8  1  0
  7  6  1  1
  9 10  1  1
 12  9  1  0
  9  8  1  0
 10 11  1  0
 14 12  1  0
 12 13  1  1
 14 28  1  0
 14 15  1  1
 16 17  2  0
 16 15  1  0
 17 26  1  0
 23 25  2  0
 23 24  1  0
 28 29  1  6
 15 27  1  0
 26 27  2  0
M  END
$$$$
