
     RDKit          3D

 33 36  0  0  0  0  0  0  0  0999 V2000
  -24.7490   12.1410   -4.2420 O   0  0  0  0  0  0  0  0  0  0  0  0
  -24.7170   10.7250   -4.3350 C   0  0  0  0  0  0  0  0  0  0  0  0
  -24.4760   10.1910   -2.8950 C   0  0  1  0  0  0  0  0  0  0  0  0
  -23.1780   10.5350   -2.4910 O   0  0  0  0  0  0  0  0  0  0  0  0
  -22.7280    9.9810   -1.2660 C   0  0  1  0  0  0  0  0  0  0  0  0
  -21.0290   10.4860   -0.9470 S   0  0  0  0  0  0  0  0  0  0  0  0
  -20.0550    9.0660   -1.5080 C   0  0  2  0  0  0  0  0  0  0  0  0
  -20.4810    7.9370   -0.7850 O   0  0  0  0  0  0  0  0  0  0  0  0
  -19.8370    6.7180   -1.1330 C   0  0  2  0  0  0  0  0  0  0  0  0
  -20.4460    5.5940   -0.3060 C   0  0  0  0  0  0  0  0  0  0  0  0
  -21.8320    5.4790   -0.6030 O   0  0  0  0  0  0  0  0  0  0  0  0
  -18.3490    6.8600   -0.8650 C   0  0  2  0  0  0  0  0  0  0  0  0
  -18.0950    7.1120    0.5130 O   0  0  0  0  0  0  0  0  0  0  0  0
  -17.8210    8.0660   -1.6700 C   0  0  2  0  0  0  0  0  0  0  0  0
  -16.3920    8.1790   -1.4760 N   0  0  0  0  0  0  0  0  0  0  0  0
  -15.6860    8.4850   -0.2550 C   0  0  0  0  0  0  0  0  0  0  0  0
  -14.3000    8.4360   -0.6350 C   0  0  0  0  0  0  0  0  0  0  0  0
  -13.1280    8.6210    0.1740 C   0  0  0  0  0  0  0  0  0  0  0  0
  -13.1890    8.5380    1.5470 C   0  0  0  0  0  0  0  0  0  0  0  0
  -12.0780    8.6890    2.3590 C   0  0  0  0  0  0  0  0  0  0  0  0
  -10.8420    8.9070    1.7860 C   0  0  0  0  0  0  0  0  0  0  0  0
  -10.7360    8.9620    0.4030 C   0  0  0  0  0  0  0  0  0  0  0  0
  -11.8770    8.8230   -0.3820 C   0  0  0  0  0  0  0  0  0  0  0  0
  -14.3330    8.0990   -2.0040 N   0  0  0  0  0  0  0  0  0  0  0  0
  -15.5200    7.9460   -2.4530 N   0  0  0  0  0  0  0  0  0  0  0  0
  -18.5900    9.3650   -1.3040 C   0  0  1  0  0  0  0  0  0  0  0  0
  -18.1930   10.3690   -2.2330 O   0  0  0  0  0  0  0  0  0  0  0  0
  -23.6570   10.3600   -0.0930 C   0  0  2  0  0  0  0  0  0  0  0  0
  -23.2710    9.7010    1.0980 O   0  0  0  0  0  0  0  0  0  0  0  0
  -25.1060   10.0330   -0.4500 C   0  0  1  0  0  0  0  0  0  0  0  0
  -25.9560   10.5990    0.5400 O   0  0  0  0  0  0  0  0  0  0  0  0
  -25.4930   10.6760   -1.8680 C   0  0  2  0  0  0  0  0  0  0  0  0
  -26.7770   10.1490   -2.2230 O   0  0  0  0  0  0  0  0  0  0  0  0
 12  9  1  0
 14 12  1  0
 12 13  1  1
  9 10  1  1
  9  8  1  0
 10 11  1  0
 26  7  1  0
  7  8  1  0
  7  6  1  1
  5 28  1  0
  5  4  1  0
  5  6  1  1
 28 30  1  0
 28 29  1  1
 30 32  1  0
 30 31  1  1
  3 32  1  0
 32 33  1  6
  3  2  1  6
  4  3  1  0
  2  1  1  0
 14 26  1  0
 26 27  1  6
 14 15  1  1
 16 17  2  0
 16 15  1  0
 17 18  1  0
 17 24  1  0
 18 19  2  0
 18 23  1  0
 19 20  1  0
 20 21  2  0
 21 22  1  0
 22 23  2  0
 15 25  1  0
 24 25  2  0
M  END
$$$$
