
     RDKit          3D

 33 36  0  0  0  0  0  0  0  0999 V2000
  -26.2534    9.1299   -3.4271 O   0  0  0  0  0  0  0  0  0  0  0  0
  -25.9935   10.3930   -2.8148 C   0  0  0  0  0  0  0  0  0  0  0  0
  -25.2815   10.1078   -1.4794 C   0  0  1  0  0  0  0  0  0  0  0  0
  -23.9351   10.5027   -1.5734 O   0  0  0  0  0  0  0  0  0  0  0  0
  -23.0788   10.1435   -0.5004 C   0  0  1  0  0  0  0  0  0  0  0  0
  -21.3937   10.7303   -0.8323 S   0  0  0  0  0  0  0  0  0  0  0  0
  -20.5403    9.2665   -1.3918 C   0  0  2  0  0  0  0  0  0  0  0  0
  -21.1005    8.1574   -0.6981 O   0  0  0  0  0  0  0  0  0  0  0  0
  -20.5585    6.8984   -1.0714 C   0  0  2  0  0  0  0  0  0  0  0  0
  -21.2368    5.7815   -0.3047 C   0  0  0  0  0  0  0  0  0  0  0  0
  -22.6695    5.8529   -0.6507 O   0  0  0  0  0  0  0  0  0  0  0  0
  -19.0531    6.9101   -0.7659 C   0  0  2  0  0  0  0  0  0  0  0  0
  -18.8060    7.1121    0.6006 O   0  0  0  0  0  0  0  0  0  0  0  0
  -18.4234    8.0634   -1.5743 C   0  0  2  0  0  0  0  0  0  0  0  0
  -16.9846    8.0424   -1.3292 N   0  0  0  0  0  0  0  0  0  0  0  0
  -16.2822    8.2068   -0.0909 C   0  0  0  0  0  0  0  0  0  0  0  0
  -14.9287    8.3571   -0.4818 C   0  0  0  0  0  0  0  0  0  0  0  0
  -13.7828    8.6677    0.3619 C   0  0  0  0  0  0  0  0  0  0  0  0
  -13.3038    9.9396    0.5423 C   0  0  0  0  0  0  0  0  0  0  0  0
  -12.0196   10.2365    0.9326 C   0  0  0  0  0  0  0  0  0  0  0  0
  -11.1900    9.2090    1.2892 C   0  0  0  0  0  0  0  0  0  0  0  0
  -11.6752    7.9068    1.2318 C   0  0  0  0  0  0  0  0  0  0  0  0
  -12.9669    7.6470    0.8350 C   0  0  0  0  0  0  0  0  0  0  0  0
  -14.9413    8.2576   -1.8725 N   0  0  0  0  0  0  0  0  0  0  0  0
  -16.1121    8.1714   -2.3480 N   0  0  0  0  0  0  0  0  0  0  0  0
  -19.0874    9.4032   -1.1547 C   0  0  2  0  0  0  0  0  0  0  0  0
  -18.8571    9.5971    0.2099 O   0  0  0  0  0  0  0  0  0  0  0  0
  -23.6323   10.6719    0.8550 C   0  0  1  0  0  0  0  0  0  0  0  0
  -23.4903   12.1136    0.9258 O   0  0  0  0  0  0  0  0  0  0  0  0
  -25.0732   10.2707    1.0337 C   0  0  1  0  0  0  0  0  0  0  0  0
  -25.6061   10.9746    2.1873 O   0  0  0  0  0  0  0  0  0  0  0  0
  -25.9392   10.7142   -0.2541 C   0  0  2  0  0  0  0  0  0  0  0  0
  -27.2109   10.0966   -0.0971 O   0  0  0  0  0  0  0  0  0  0  0  0
 12  9  1  0
 14 12  1  0
 12 13  1  1
  9 10  1  1
  9  8  1  0
 10 11  1  0
 26  7  1  0
  7  8  1  0
  7  6  1  1
  5 28  1  0
  5  4  1  0
  5  6  1  6
 28 30  1  0
 28 29  1  1
 30 32  1  0
 30 31  1  1
  3 32  1  0
 32 33  1  1
  3  2  1  6
  4  3  1  0
  2  1  1  0
 14 26  1  0
 26 27  1  6
 14 15  1  1
 16 17  4  0
 16 15  4  0
 17 18  1  0
 17 24  4  0
 18 19  4  0
 18 23  4  0
 19 20  4  0
 20 21  4  0
 21 22  4  0
 22 23  4  0
 15 25  4  0
 24 25  4  0
M  END
$$$$
