
     RDKit          3D

 30 33  0  0  0  0  0  0  0  0999 V2000
  -25.6364   10.4166   -3.7172 C   0  0  0  0  0  0  0  0  0  0  0  0
  -24.2236   10.2421   -3.8607 C   0  0  0  0  0  0  0  0  0  0  0  0
  -23.3035   10.9110   -3.0393 C   0  0  0  0  0  0  0  0  0  0  0  0
  -22.0178   10.5063   -2.9381 C   0  0  0  0  0  0  0  0  0  0  0  0
  -21.4995    9.3869   -3.6109 C   0  0  0  0  0  0  0  0  0  0  0  0
  -19.9662    8.5847   -3.1059 S   0  0  0  0  0  0  0  0  0  0  0  0
  -19.7104    8.9764   -1.4804 C   0  0  1  0  0  0  0  0  0  0  0  0
  -20.2902    8.0012   -0.5774 O   0  0  0  0  0  0  0  0  0  0  0  0
  -19.6902    6.6259   -0.6331 C   0  0  2  0  0  0  0  0  0  0  0  0
  -20.4846    5.7872    0.4471 C   0  0  0  0  0  0  0  0  0  0  0  0
  -21.6563    5.2337   -0.2885 O   0  0  0  0  0  0  0  0  0  0  0  0
  -18.1754    6.6858   -0.3779 C   0  0  2  0  0  0  0  0  0  0  0  0
  -17.9922    7.1178    0.8746 O   0  0  0  0  0  0  0  0  0  0  0  0
  -17.5147    7.8263   -1.4195 C   0  0  2  0  0  0  0  0  0  0  0  0
  -16.1306    7.8433   -1.3086 N   0  0  0  0  0  0  0  0  0  0  0  0
  -15.3441    7.9313   -0.1853 C   0  0  0  0  0  0  0  0  0  0  0  0
  -14.0002    8.0603   -0.6256 C   0  0  0  0  0  0  0  0  0  0  0  0
  -12.7802    8.3995    0.0920 C   0  0  0  0  0  0  0  0  0  0  0  0
  -11.5251    8.4849   -0.5064 C   0  0  0  0  0  0  0  0  0  0  0  0
  -10.3416    8.5747    0.1412 C   0  0  0  0  0  0  0  0  0  0  0  0
  -10.3627    8.5848    1.5336 C   0  0  0  0  0  0  0  0  0  0  0  0
  -11.5514    8.6258    2.1525 C   0  0  0  0  0  0  0  0  0  0  0  0
  -12.7143    8.4410    1.4129 C   0  0  0  0  0  0  0  0  0  0  0  0
  -13.7893    8.3299    2.1519 F   0  0  0  0  0  0  0  0  0  0  0  0
  -14.1141    7.9358   -1.9856 N   0  0  0  0  0  0  0  0  0  0  0  0
  -15.3308    7.8481   -2.3741 N   0  0  0  0  0  0  0  0  0  0  0  0
  -18.2525    9.2148   -1.1748 C   0  0  2  0  0  0  0  0  0  0  0  0
  -18.1950    9.4686    0.1997 O   0  0  0  0  0  0  0  0  0  0  0  0
  -22.3151    8.7916   -4.5840 C   0  0  0  0  0  0  0  0  0  0  0  0
  -23.6491    9.1858   -4.6663 C   0  0  0  0  0  0  0  0  0  0  0  0
 18 19  4  0
 17 18  1  0
 18 23  4  0
 19 20  4  0
 20 21  4  0
 22 21  4  0
 23 22  4  0
 27  7  1  0
 14 27  1  0
 27 28  1  6
  2  1  1  0
  3  2  4  0
 30  2  4  0
  4  3  4  0
  5  4  4  0
 29 30  4  0
  5 29  4  0
  6  5  1  0
  7  8  1  0
  7  6  1  1
  9 10  1  1
 12  9  1  0
  9  8  1  0
 10 11  1  0
 14 12  1  0
 12 13  1  1
 14 15  1  1
 16 17  4  0
 16 15  4  0
 17 25  4  0
 23 24  1  0
 15 26  4  0
 25 26  4  0
M  END
$$$$
