
     RDKit          3D

 28 30  0  0  0  0  0  0  0  0999 V2000
   10.7686   -2.7232    9.7212 N   0  0  0  0  0  0  0  0  0  0  0  0
    9.8486   -2.2805    8.6634 C   0  0  1  0  0  0  0  0  0  0  0  0
    8.3597   -2.8254    8.9823 C   0  0  0  0  0  0  0  0  0  0  0  0
    8.4401   -4.2691    8.8898 O   0  0  0  0  0  0  0  0  0  0  0  0
    9.7312   -0.7441    8.5429 C   0  0  0  0  0  0  0  0  0  0  0  0
   10.8648    0.1118    8.5598 C   0  0  0  0  0  0  0  0  0  0  0  0
   10.7204    1.4947    8.6682 C   0  0  0  0  0  0  0  0  0  0  0  0
    9.4562    2.0623    8.7587 C   0  0  0  0  0  0  0  0  0  0  0  0
    8.2883    1.1947    8.8059 C   0  0  0  0  0  0  0  0  0  0  0  0
    7.1315    1.6275    9.6407 C   0  0  0  0  0  0  0  0  0  0  0  0
    7.2934    1.7184   11.0730 C   0  0  0  0  0  0  0  0  0  0  0  0
    6.1594    1.5883   11.8946 C   0  0  0  0  0  0  0  0  0  0  0  0
    4.8827    1.5766   11.3362 C   0  0  0  0  0  0  0  0  0  0  0  0
    4.7143    1.5779    9.9360 C   0  0  0  0  0  0  0  0  0  0  0  0
    3.3078    1.6582    9.3119 C   0  0  0  0  0  0  0  0  0  0  0  0
    3.4562    2.5207    8.1774 O   0  0  0  0  0  0  0  0  0  0  0  0
    3.9338    3.8358    8.2044 C   0  0  0  0  0  0  0  0  0  0  0  0
    5.2191    4.1262    7.8138 C   0  0  0  0  0  0  0  0  0  0  0  0
    5.6326    5.5173    7.5788 C   0  0  0  0  0  0  0  0  0  0  0  0
    4.6270    6.5176    7.6306 C   0  0  0  0  0  0  0  0  0  0  0  0
    3.3023    6.1645    7.9522 C   0  0  0  0  0  0  0  0  0  0  0  0
    2.9874    4.8977    8.4625 C   0  0  0  0  0  0  0  0  0  0  0  0
    1.9620    4.8252    9.6155 C   0  0  0  0  0  0  0  0  0  0  0  0
    2.1740    5.8023   10.7556 C   0  0  0  0  0  0  0  0  0  0  0  0
    2.1306    5.4896   11.9318 O   0  0  0  0  0  0  0  0  0  0  0  0
    2.1823    7.1333   10.4756 O   0  0  0  0  0  0  0  0  0  0  0  0
    5.8231    1.6413    9.0974 C   0  0  0  0  0  0  0  0  0  0  0  0
    8.4539   -0.1581    8.4894 C   0  0  0  0  0  0  0  0  0  0  0  0
 10 11  4  0
 12 11  4  0
 27 10  4  0
 10  9  1  0
 14 27  4  0
 18 19  4  0
 17 18  4  0
 19 20  4  0
 21 20  4  0
 22 21  4  0
 22 23  1  0
 17 22  4  0
 23 24  1  0
 24 26  1  0
 24 25  2  0
 28  5  4  0
  9 28  4  0
  5  6  4  0
  5  2  1  0
  7  6  4  0
  8  7  4  0
  9  8  4  0
  2  3  1  0
  2  1  1  6
  3  4  1  0
 14 13  4  0
 15 14  1  0
 13 12  4  0
 16 15  1  0
 16 17  1  0
M  CHG  1   1   1
M  END
$$$$
