
     RDKit          3D

 27 29  0  0  0  0  0  0  0  0999 V2000
   -8.3178   -0.7844    7.4867 N   0  0  0  0  0  0  0  0  0  0  0  0
   -7.0555   -0.0802    7.1432 C   0  0  0  0  0  0  0  0  0  0  0  0
   -7.2087    1.4137    6.8047 C   0  0  0  0  0  0  0  0  0  0  0  0
   -7.2516    2.3807    7.8190 C   0  0  0  0  0  0  0  0  0  0  0  0
   -7.3083    3.7469    7.4934 C   0  0  0  0  0  0  0  0  0  0  0  0
   -7.3922    4.1763    6.1402 C   0  0  0  0  0  0  0  0  0  0  0  0
   -7.4816    3.1854    5.1025 C   0  0  0  0  0  0  0  0  0  0  0  0
   -8.2520    3.5138    3.8560 C   0  0  0  0  0  0  0  0  0  0  0  0
   -9.5868    3.0405    3.7579 C   0  0  0  0  0  0  0  0  0  0  0  0
  -10.1583    2.7018    2.4876 C   0  0  0  0  0  0  0  0  0  0  0  0
   -9.4023    2.9148    1.3018 C   0  0  0  0  0  0  0  0  0  0  0  0
   -8.1973    3.7089    1.3925 C   0  0  0  0  0  0  0  0  0  0  0  0
   -7.7672    4.6226    0.2820 C   0  0  0  0  0  0  0  0  0  0  0  0
   -8.6713    4.9798   -0.5753 O   0  0  0  0  0  0  0  0  0  0  0  0
   -6.6787    5.4137    0.4539 N   0  0  0  0  0  0  0  0  0  0  0  0
   -6.5739    6.8076    0.3298 C   0  0  0  0  0  0  0  0  0  0  0  0
   -6.4995    7.4529   -0.9444 C   0  0  0  0  0  0  0  0  0  0  0  0
   -7.0661    8.7084   -1.0431 C   0  0  0  0  0  0  0  0  0  0  0  0
   -7.4833    9.4720    0.0891 C   0  0  0  0  0  0  0  0  0  0  0  0
   -7.4275    8.8213    1.3360 C   0  0  0  0  0  0  0  0  0  0  0  0
   -6.8424    7.6209    1.4755 C   0  0  0  0  0  0  0  0  0  0  0  0
   -6.0539    7.3160    2.8114 C   0  0  0  0  0  0  0  0  0  0  0  0
   -6.9536    7.5406    4.0212 C   0  0  0  0  0  0  0  0  0  0  0  0
   -8.2183    7.3624    3.9570 O   0  0  0  0  0  0  0  0  0  0  0  0
   -6.3760    7.4153    5.1681 O   0  0  0  0  0  0  0  0  0  0  0  0
   -7.6313    3.8779    2.6535 C   0  0  0  0  0  0  0  0  0  0  0  0
   -7.2381    1.8542    5.4526 C   0  0  0  0  0  0  0  0  0  0  0  0
 12 26  4  0
 12 11  4  0
 13 12  1  0
 26  8  4  0
  8  7  1  0
  8  9  4  0
 19 20  4  0
 20 21  4  0
 18 19  4  0
 17 18  4  0
 16 17  4  0
 22 23  1  0
 21 22  1  0
 23 24  2  0
 23 25  1  0
  7 27  4  0
  7  6  4  0
 27  3  4  0
  3  4  4  0
  3  2  1  0
  5  4  4  0
  6  5  4  0
  2  1  1  0
 10  9  4  0
 11 10  4  0
 15 13  1  0
 13 14  2  0
 15 16  1  0
 16 21  4  0
M  CHG  1   1   1
M  END
$$$$
