
     RDKit          3D

 27 29  0  0  0  0  0  0  0  0999 V2000
   -7.7520   -0.9920    7.5220 N   0  0  0  0  0  0  0  0  0  0  0  0
   -7.7330   -0.4090    6.1470 C   0  0  0  0  0  0  0  0  0  0  0  0
   -7.8130    1.1370    6.1690 C   0  0  0  0  0  0  0  0  0  0  0  0
   -7.8150    1.8600    7.3670 C   0  0  0  0  0  0  0  0  0  0  0  0
   -7.8370    3.2730    7.3540 C   0  0  0  0  0  0  0  0  0  0  0  0
   -7.8900    3.9810    6.1320 C   0  0  0  0  0  0  0  0  0  0  0  0
   -7.8280    3.2660    4.9030 C   0  0  0  0  0  0  0  0  0  0  0  0
   -7.8740    3.9820    3.5820 C   0  0  0  0  0  0  0  0  0  0  0  0
   -8.4950    3.3960    2.4650 C   0  0  0  0  0  0  0  0  0  0  0  0
   -8.5540    4.0610    1.2170 C   0  0  0  0  0  0  0  0  0  0  0  0
   -8.0440    5.3680    1.0970 C   0  0  0  0  0  0  0  0  0  0  0  0
   -7.4750    6.0020    2.2260 C   0  0  0  0  0  0  0  0  0  0  0  0
   -6.9570    7.4220    2.1830 C   0  0  0  0  0  0  0  0  0  0  0  0
   -6.9330    8.0260    1.1200 O   0  0  0  0  0  0  0  0  0  0  0  0
   -6.5630    7.9950    3.3350 N   0  0  0  0  0  0  0  0  0  0  0  0
   -6.1220    9.3260    3.5750 C   0  0  0  0  0  0  0  0  0  0  0  0
   -5.1100    9.9250    2.7900 C   0  0  0  0  0  0  0  0  0  0  0  0
   -4.6740   11.2370    3.0890 C   0  0  0  0  0  0  0  0  0  0  0  0
   -5.2400   11.9450    4.1680 C   0  0  0  0  0  0  0  0  0  0  0  0
   -6.2500   11.3390    4.9460 C   0  0  0  0  0  0  0  0  0  0  0  0
   -6.6560   10.0210    4.6790 C   0  0  0  0  0  0  0  0  0  0  0  0
   -7.8020    9.4420    5.5340 C   0  0  0  0  0  0  0  0  0  0  0  0
   -7.4430    8.1200    6.1640 C   0  0  0  0  0  0  0  0  0  0  0  0
   -6.3980    7.5260    5.9920 O   0  0  0  0  0  0  0  0  0  0  0  0
   -8.3550    7.6060    6.9710 O   0  0  0  0  0  0  0  0  0  0  0  0
   -7.3700    5.2840    3.4450 C   0  0  0  0  0  0  0  0  0  0  0  0
   -7.7970    1.8530    4.9580 C   0  0  0  0  0  0  0  0  0  0  0  0
 12 26  2  0
 12 11  1  0
 13 12  1  0
 26  8  1  0
  8  7  1  0
  8  9  2  0
 19 20  2  0
 20 21  1  0
 18 19  1  0
 17 18  2  0
 16 17  1  0
 22 23  1  0
 21 22  1  0
 23 24  2  0
 23 25  1  0
  7 27  2  0
  7  6  1  0
 27  3  1  0
  3  4  2  0
  3  2  1  0
  5  4  1  0
  6  5  2  0
  2  1  1  0
 10  9  1  0
 11 10  2  0
 15 13  1  0
 13 14  2  0
 15 16  1  0
 16 21  2  0
M  CHG  1   1   1
M  END
$$$$
