
     RDKit          3D

 23 25  0  0  0  0  0  0  0  0999 V2000
  -21.9354  -25.5464   11.1787 C   0  0  0  0  0  0  0  0  0  0  0  0
  -22.8912  -24.4170   11.5162 O   0  0  0  0  0  0  0  0  0  0  0  0
  -22.8573  -23.3631   10.6428 C   0  0  0  0  0  0  0  0  0  0  0  0
  -22.5530  -22.1408   11.0949 C   0  0  0  0  0  0  0  0  0  0  0  0
  -21.9291  -21.1607   10.2067 C   0  0  0  0  0  0  0  0  0  0  0  0
  -21.7091  -19.7657   10.5886 C   0  0  0  0  0  0  0  0  0  0  0  0
  -21.5767  -19.6844   12.0361 O   0  0  0  0  0  0  0  0  0  0  0  0
  -21.7876  -18.3990   12.6429 C   0  0  0  0  0  0  0  0  0  0  0  0
  -22.9233  -17.8422   12.7029 O   0  0  0  0  0  0  0  0  0  0  0  0
  -20.5206  -17.5637   12.9397 C   0  0  0  0  0  0  0  0  0  0  0  0
  -19.2719  -18.0045   13.0766 C   0  0  0  0  0  0  0  0  0  0  0  0
  -18.4987  -16.9141   13.0367 N   0  0  0  0  0  0  0  0  0  0  0  0
  -19.1992  -15.8021   13.0923 N   0  0  0  0  0  0  0  0  0  0  0  0
  -20.5225  -16.1609   13.0299 C   0  0  0  0  0  0  0  0  0  0  0  0
  -21.7710  -21.5371    8.8479 C   0  0  0  0  0  0  0  0  0  0  0  0
  -21.9925  -22.7801    8.4327 C   0  0  0  0  0  0  0  0  0  0  0  0
  -20.9567  -23.4520    7.4675 C   0  0  0  0  0  0  0  0  0  0  0  0
  -20.8744  -23.0107    6.1560 C   0  0  0  0  0  0  0  0  0  0  0  0
  -20.7008  -23.9768    5.1160 C   0  0  0  0  0  0  0  0  0  0  0  0
  -20.4750  -25.3262    5.5084 C   0  0  0  0  0  0  0  0  0  0  0  0
  -20.3293  -25.6477    6.7849 N   0  0  0  0  0  0  0  0  0  0  0  0
  -20.4732  -24.7185    7.7701 C   0  0  0  0  0  0  0  0  0  0  0  0
  -22.7881  -23.6268    9.2231 C   0  0  0  0  0  0  0  0  0  0  0  0
 10 11  4  0
 11 12  4  0
 14 13  4  0
 13 12  4  0
 10 14  4  0
  5 15  4  0
 15 16  4  0
 17 18  4  0
 16 17  1  0
 17 22  4  0
 19 20  4  0
 20 21  4  0
 18 19  4  0
  2  1  1  0
  3  2  1  0
  4  3  4  0
  3 23  4  0
  5  4  4  0
  6  5  1  0
  7  6  1  0
  8  7  1  0
  8 10  1  0
  8  9  2  0
 16 23  4  0
 22 21  4  0
M  END
$$$$
