
     RDKit          3D

 24 27  0  0  0  0  0  0  0  0999 V2000
  -21.9202   28.0240   -6.8364 C   0  0  0  0  0  0  0  0  0  0  0  0
  -21.9078   26.7717   -6.1288 O   0  0  0  0  0  0  0  0  0  0  0  0
  -21.7038   25.6275   -6.9662 C   0  0  0  0  0  0  0  0  0  0  0  0
  -22.6554   24.6329   -6.9845 C   0  0  0  0  0  0  0  0  0  0  0  0
  -22.4213   23.3960   -7.6797 C   0  0  0  0  0  0  0  0  0  0  0  0
  -21.2723   23.2297   -8.3529 C   0  0  0  0  0  0  0  0  0  0  0  0
  -21.1798   22.0627   -9.3272 C   0  0  0  0  0  0  0  0  0  0  0  0
  -22.3705   21.8809  -10.0972 N   0  0  0  0  0  0  0  0  0  0  0  0
  -23.6264   22.2523   -9.6769 C   0  0  0  0  0  0  0  0  0  0  0  0
  -24.5121   21.3459  -10.2248 C   0  0  0  0  0  0  0  0  0  0  0  0
  -23.7453   20.3558  -10.9574 C   0  0  0  0  0  0  0  0  0  0  0  0
  -23.9557   18.9945  -11.2215 C   0  0  0  0  0  0  0  0  0  0  0  0
  -22.8913   18.1784  -11.6627 C   0  0  0  0  0  0  0  0  0  0  0  0
  -21.6200   18.7623  -11.8014 C   0  0  0  0  0  0  0  0  0  0  0  0
  -20.3914   17.9364  -11.6173 C   0  0  0  0  0  0  0  0  0  0  0  0
  -19.9032   17.0277  -12.4868 C   0  0  0  0  0  0  0  0  0  0  0  0
  -18.4904   17.0842  -12.3147 C   0  0  0  0  0  0  0  0  0  0  0  0
  -17.4442   16.2362  -12.9679 N   0  0  0  0  0  0  0  0  0  0  0  0
  -18.1934   17.9005  -11.3308 N   0  0  0  0  0  0  0  0  0  0  0  0
  -19.3895   18.2924  -10.7603 N   0  0  0  0  0  0  0  0  0  0  0  0
  -21.4685   20.1730  -11.7611 C   0  0  0  0  0  0  0  0  0  0  0  0
  -22.5016   20.9086  -11.1105 C   0  0  0  0  0  0  0  0  0  0  0  0
  -20.2342   24.2143   -8.2406 C   0  0  0  0  0  0  0  0  0  0  0  0
  -20.5081   25.4545   -7.5883 C   0  0  0  0  0  0  0  0  0  0  0  0
 22 11  4  0
  8 22  4  0
 22 21  4  0
  6  5  4  0
  7  6  1  0
  6 23  4  0
 23 24  4  0
 24  3  4  0
  5  4  4  0
  9 10  4  0
  8  9  4  0
 10 11  4  0
 16 17  4  0
 15 16  4  0
 17 18  1  0
 19 17  4  0
 20 19  4  0
 15 20  4  0
 14 15  1  0
 14 13  4  0
 21 14  4  0
 12 13  4  0
 11 12  4  0
  8  7  1  0
  3  2  1  0
  3  4  4  0
  2  1  1  0
M  END
$$$$
