
     RDKit          3D

 24 27  0  0  0  0  0  0  0  0999 V2000
  -20.5030   25.1630   -5.1500 C   0  0  0  0  0  0  0  0  0  0  0  0
  -20.0500   24.0240   -5.9270 O   0  0  0  0  0  0  0  0  0  0  0  0
  -20.7730   23.8570   -7.1330 C   0  0  0  0  0  0  0  0  0  0  0  0
  -20.2970   24.4390   -8.2930 C   0  0  0  0  0  0  0  0  0  0  0  0
  -21.0340   24.2830   -9.5380 C   0  0  0  0  0  0  0  0  0  0  0  0
  -22.1760   23.5710   -9.5640 C   0  0  0  0  0  0  0  0  0  0  0  0
  -22.8960   23.4410  -10.8910 C   0  0  0  0  0  0  0  0  0  0  0  0
  -23.7970   22.2860  -10.9250 N   0  0  0  0  0  0  0  0  0  0  0  0
  -25.1010   22.3060  -10.6320 C   0  0  0  0  0  0  0  0  0  0  0  0
  -25.5710   21.0250  -10.7870 C   0  0  0  0  0  0  0  0  0  0  0  0
  -24.4810   20.1920  -11.2000 C   0  0  0  0  0  0  0  0  0  0  0  0
  -24.3590   18.8020  -11.4990 C   0  0  0  0  0  0  0  0  0  0  0  0
  -23.1080   18.2720  -11.8870 C   0  0  0  0  0  0  0  0  0  0  0  0
  -22.0210   19.1240  -11.9640 C   0  0  0  0  0  0  0  0  0  0  0  0
  -20.6560   18.5930  -12.2800 C   0  0  0  0  0  0  0  0  0  0  0  0
  -20.2580   17.3160  -12.1970 C   0  0  0  0  0  0  0  0  0  0  0  0
  -18.8390   17.3170  -12.5060 C   0  0  0  0  0  0  0  0  0  0  0  0
  -17.9540   16.1970  -12.5710 N   0  0  0  0  0  0  0  0  0  0  0  0
  -18.4790   18.5980  -12.7050 N   0  0  0  0  0  0  0  0  0  0  0  0
  -19.5660   19.3830  -12.5430 N   0  0  0  0  0  0  0  0  0  0  0  0
  -22.1200   20.4970  -11.6520 C   0  0  0  0  0  0  0  0  0  0  0  0
  -23.3970   21.0180  -11.2690 C   0  0  0  0  0  0  0  0  0  0  0  0
  -22.6620   22.9730   -8.3930 C   0  0  0  0  0  0  0  0  0  0  0  0
  -21.9330   23.1340   -7.1480 C   0  0  0  0  0  0  0  0  0  0  0  0
 22 11  2  0
  8 22  1  0
 22 21  1  0
  6  5  2  0
  7  6  1  0
  6 23  1  0
 23 24  2  0
 24  3  1  0
  5  4  1  0
  9 10  2  0
  8  9  1  0
 10 11  1  0
 16 17  2  0
 15 16  1  0
 17 18  1  0
 19 17  1  0
 20 19  1  0
 15 20  2  0
 14 15  1  0
 14 13  1  0
 21 14  2  0
 12 13  2  0
 11 12  1  0
  8  7  1  0
  3  2  1  0
  3  4  2  0
  2  1  1  0
M  END
$$$$
