
     RDKit          3D

 22 25  0  0  0  0  0  0  0  0999 V2000
  -17.3451   16.9571  -10.9381 N   0  0  0  0  0  0  0  0  0  0  0  0
  -18.4724   17.7572  -11.2544 C   0  0  0  0  0  0  0  0  0  0  0  0
  -19.8222   17.3634  -11.3513 C   0  0  0  0  0  0  0  0  0  0  0  0
  -20.5435   18.5187  -11.4917 C   0  0  0  0  0  0  0  0  0  0  0  0
  -21.9243   18.8112  -11.0174 C   0  0  0  0  0  0  0  0  0  0  0  0
  -22.9723   19.0639  -11.9636 C   0  0  0  0  0  0  0  0  0  0  0  0
  -23.7107   20.2247  -11.8476 C   0  0  0  0  0  0  0  0  0  0  0  0
  -23.5952   21.0532  -10.6573 C   0  0  0  0  0  0  0  0  0  0  0  0
  -24.0510   22.4041  -10.3343 C   0  0  0  0  0  0  0  0  0  0  0  0
  -23.1877   22.8765   -9.3137 C   0  0  0  0  0  0  0  0  0  0  0  0
  -22.3589   21.8787   -8.9799 N   0  0  0  0  0  0  0  0  0  0  0  0
  -21.1234   22.1359   -8.2778 C   0  0  0  0  0  0  0  0  0  0  0  0
  -21.2163   23.3770   -7.3948 C   0  0  0  0  0  0  0  0  0  0  0  0
  -22.2523   23.4446   -6.4220 C   0  0  0  0  0  0  0  0  0  0  0  0
  -22.4834   24.6828   -5.7421 C   0  0  0  0  0  0  0  0  0  0  0  0
  -21.6673   25.7904   -6.0154 C   0  0  0  0  0  0  0  0  0  0  0  0
  -20.6086   25.6984   -6.9308 C   0  0  0  0  0  0  0  0  0  0  0  0
  -20.3711   24.4877   -7.6159 C   0  0  0  0  0  0  0  0  0  0  0  0
  -22.6986   20.6822   -9.6843 C   0  0  0  0  0  0  0  0  0  0  0  0
  -22.0437   19.4089   -9.7606 C   0  0  0  0  0  0  0  0  0  0  0  0
  -19.6235   19.4722  -11.7543 N   0  0  0  0  0  0  0  0  0  0  0  0
  -18.4399   19.0621  -11.5546 N   0  0  0  0  0  0  0  0  0  0  0  0
  8  9  4  0
  8  7  4  0
 19  8  4  0
 13 18  4  0
 12 13  1  0
 13 14  4  0
 14 15  4  0
 15 16  4  0
 18 17  4  0
 10  9  4  0
 11 10  4  0
  2  1  1  0
  2 22  4  0
  3  2  4  0
 21 22  4  0
  4 21  4  0
  4  3  4  0
  5  4  1  0
  5  6  4  0
 20  5  4  0
  7  6  4  0
 19 20  4  0
 11 19  4  0
 11 12  1  0
 16 17  4  0
M  END
$$$$
