
     RDKit          3D

 24 27  0  0  0  0  0  0  0  0999 V2000
  -22.2742   16.3595  -13.8440 N   0  0  0  0  0  0  0  0  0  0  0  0
  -22.0736   17.3210  -13.1524 C   0  0  0  0  0  0  0  0  0  0  0  0
  -21.0935   18.1081  -12.2857 C   0  0  0  0  0  0  0  0  0  0  0  0
  -21.3199   18.8786  -11.2060 C   0  0  0  0  0  0  0  0  0  0  0  0
  -22.1815   20.0941  -11.0395 C   0  0  0  0  0  0  0  0  0  0  0  0
  -23.6114   20.0374  -11.1511 C   0  0  0  0  0  0  0  0  0  0  0  0
  -24.3544   21.2073  -10.9314 C   0  0  0  0  0  0  0  0  0  0  0  0
  -23.7320   22.4050  -10.4494 C   0  0  0  0  0  0  0  0  0  0  0  0
  -24.2138   23.6280   -9.8868 C   0  0  0  0  0  0  0  0  0  0  0  0
  -23.2032   24.2131   -9.1210 C   0  0  0  0  0  0  0  0  0  0  0  0
  -22.0856   23.4058   -9.2784 N   0  0  0  0  0  0  0  0  0  0  0  0
  -20.9043   23.4641   -8.3554 C   0  0  0  0  0  0  0  0  0  0  0  0
  -20.8970   24.7269   -7.3876 C   0  0  0  0  0  0  0  0  0  0  0  0
  -21.9325   25.6977   -7.6130 C   0  0  0  0  0  0  0  0  0  0  0  0
  -22.0646   26.6790   -6.5922 C   0  0  0  0  0  0  0  0  0  0  0  0
  -21.1577   26.6895   -5.5155 C   0  0  0  0  0  0  0  0  0  0  0  0
  -20.2074   25.7353   -5.3597 N   0  0  0  0  0  0  0  0  0  0  0  0
  -20.0226   24.8476   -6.2776 C   0  0  0  0  0  0  0  0  0  0  0  0
  -22.3541   22.4079  -10.1784 C   0  0  0  0  0  0  0  0  0  0  0  0
  -21.5110   21.3089  -10.6219 C   0  0  0  0  0  0  0  0  0  0  0  0
  -20.3117   18.6567  -10.3894 N   0  0  0  0  0  0  0  0  0  0  0  0
  -19.2902   18.0098  -11.0471 N   0  0  0  0  0  0  0  0  0  0  0  0
  -19.7087   17.8033  -12.2713 C   0  0  0  0  0  0  0  0  0  0  0  0
  -18.9127   17.5967  -13.4052 N   0  0  0  0  0  0  0  0  0  0  0  0
  5  6  4  0
  7  6  4  0
 19  8  4  0
 19 20  4  0
 11 19  4  0
 13 14  4  0
 12 13  1  0
 13 18  4  0
 15 16  4  0
 16 17  4  0
 14 15  4  0
  8  9  4  0
  9 10  4  0
 23 24  1  0
 23 22  4  0
  3 23  4  0
 21 22  4  0
  4 21  4  0
  4  3  4  0
  5  4  1  0
  3  2  1  0
  2  1  3  0
 20  5  4  0
  8  7  4  0
 11 12  1  0
 11 10  4  0
 18 17  4  0
M  END
$$$$
