
     RDKit          3D

 24 27  0  0  0  0  0  0  0  0999 V2000
  -21.6111   15.2023  -13.3369 N   0  0  0  0  0  0  0  0  0  0  0  0
  -21.6659   16.2524  -12.7279 C   0  0  0  0  0  0  0  0  0  0  0  0
  -20.8152   17.3943  -12.2591 C   0  0  0  0  0  0  0  0  0  0  0  0
  -21.1789   18.7732  -11.9545 C   0  0  0  0  0  0  0  0  0  0  0  0
  -22.3345   19.2978  -11.0909 C   0  0  0  0  0  0  0  0  0  0  0  0
  -23.5942   19.4296  -11.6195 C   0  0  0  0  0  0  0  0  0  0  0  0
  -24.3543   20.5589  -11.2921 C   0  0  0  0  0  0  0  0  0  0  0  0
  -23.7881   21.4805  -10.3488 C   0  0  0  0  0  0  0  0  0  0  0  0
  -24.1457   22.8717   -9.9766 C   0  0  0  0  0  0  0  0  0  0  0  0
  -23.0290   23.4082   -9.4254 C   0  0  0  0  0  0  0  0  0  0  0  0
  -22.1320   22.4320   -9.2058 N   0  0  0  0  0  0  0  0  0  0  0  0
  -20.7941   22.6165   -8.5840 C   0  0  0  0  0  0  0  0  0  0  0  0
  -20.9097   23.7324   -7.5051 C   0  0  0  0  0  0  0  0  0  0  0  0
  -20.7846   25.0680   -7.8905 C   0  0  0  0  0  0  0  0  0  0  0  0
  -20.8294   26.0472   -6.9599 C   0  0  0  0  0  0  0  0  0  0  0  0
  -21.0078   25.7350   -5.6417 N   0  0  0  0  0  0  0  0  0  0  0  0
  -21.1144   24.4969   -5.1958 C   0  0  0  0  0  0  0  0  0  0  0  0
  -21.1005   23.4531   -6.1209 C   0  0  0  0  0  0  0  0  0  0  0  0
  -22.5602   21.2596   -9.7367 C   0  0  0  0  0  0  0  0  0  0  0  0
  -21.9183   20.0328   -9.9666 C   0  0  0  0  0  0  0  0  0  0  0  0
  -20.1532   19.4835  -12.1285 N   0  0  0  0  0  0  0  0  0  0  0  0
  -19.0196   18.7103  -12.2966 N   0  0  0  0  0  0  0  0  0  0  0  0
  -19.4367   17.4144  -12.2929 C   0  0  0  0  0  0  0  0  0  0  0  0
  -18.5709   16.2376  -12.3784 N   0  0  0  0  0  0  0  0  0  0  0  0
  5  6  4  0
  7  6  4  0
 19  8  4  0
 19 20  4  0
 11 19  4  0
 13 14  4  0
 12 13  1  0
 13 18  4  0
 14 15  4  0
 15 16  4  0
  8  9  4  0
  9 10  4  0
 23 24  1  0
 23 22  4  0
  3 23  4  0
 21 22  4  0
  4 21  4  0
  4  3  4  0
  5  4  1  0
  3  2  1  0
  2  1  3  0
 20  5  4  0
  8  7  4  0
 11 12  1  0
 11 10  4  0
 18 17  4  0
 17 16  4  0
M  END
$$$$
