
     RDKit          3D

 25 28  0  0  0  0  0  0  0  0999 V2000
  -22.2370   24.3320   -6.1460 C   0  0  0  0  0  0  0  0  0  0  0  0
  -21.6530   24.0760   -7.1790 N   0  0  2  0  0  4  0  0  0  0  0  0
  -20.7310   25.1340   -7.4850 C   0  0  0  0  0  0  0  0  0  0  0  0
  -20.2130   25.1510   -8.9040 C   0  0  0  0  0  0  0  0  0  0  0  0
  -21.1870   24.8170   -9.9070 C   0  0  0  0  0  0  0  0  0  0  0  0
  -21.9700   23.6610   -9.5940 C   0  0  2  0  0  0  0  0  0  0  0  0
  -23.0300   23.4990  -10.7440 C   0  0  0  0  0  0  0  0  0  0  0  0
  -23.8470   22.2890  -10.6640 N   0  0  0  0  0  0  0  0  0  0  0  0
  -25.1430   22.2520  -10.2950 C   0  0  0  0  0  0  0  0  0  0  0  0
  -25.5980   20.9090  -10.3740 C   0  0  0  0  0  0  0  0  0  0  0  0
  -24.4870   20.1070  -10.8490 C   0  0  0  0  0  0  0  0  0  0  0  0
  -24.3210   18.7040  -11.1280 C   0  0  0  0  0  0  0  0  0  0  0  0
  -23.0840   18.2490  -11.5830 C   0  0  0  0  0  0  0  0  0  0  0  0
  -22.0090   19.1740  -11.7780 C   0  0  0  0  0  0  0  0  0  0  0  0
  -20.6540   18.7060  -12.1670 C   0  0  0  0  0  0  0  0  0  0  0  0
  -19.6200   19.5580  -12.2240 N   0  0  0  0  0  0  0  0  0  0  0  0
  -18.4840   18.8650  -12.5070 N   0  0  0  0  0  0  0  0  0  0  0  0
  -18.7960   17.5580  -12.5900 C   0  0  0  0  0  0  0  0  0  0  0  0
  -17.8550   16.5280  -12.8620 N   0  0  0  0  0  0  0  0  0  0  0  0
  -20.1510   17.4190  -12.3430 C   0  0  0  0  0  0  0  0  0  0  0  0
  -20.8450   16.0430  -12.3940 C   0  0  0  0  0  0  0  0  0  0  0  0
  -21.2970   14.9830  -12.4450 N   0  0  0  0  0  0  0  0  0  0  0  0
  -22.1420   20.5460  -11.4730 C   0  0  0  0  0  0  0  0  0  0  0  0
  -23.4060   21.0110  -11.0170 C   0  0  0  0  0  0  0  0  0  0  0  0
  -22.5940   23.7420   -8.2070 C   0  0  0  0  0  0  0  0  0  0  0  0
  8 24  1  0
 24 23  1  0
 24 11  2  0
 14 15  1  0
 15 20  1  0
 15 16  2  0
 20 21  1  0
 21 22  3  0
 20 18  2  0
 18 19  1  0
 18 17  1  0
 12 13  2  0
 13 14  1  0
 11 12  1  0
 11 10  1  0
 10  9  2  0
  2  1  1  1
 25  2  1  0
  2  3  1  0
  6 25  1  0
  4  3  1  0
  5  4  1  0
  6  5  1  0
  6  7  1  6
  7  8  1  0
  8  9  1  0
 23 14  2  0
 17 16  1  0
M  CHG  1   2   1
M  END
$$$$
