
     RDKit          3D

 31 35  0  0  0  0  0  0  0  0999 V2000
  -21.2690  -15.2000   12.6770 N   0  0  0  0  0  0  0  0  0  0  0  0
  -20.7980  -16.2640   12.6260 C   0  0  0  0  0  0  0  0  0  0  0  0
  -20.0960  -17.6660   12.5640 C   0  0  0  0  0  0  0  0  0  0  0  0
  -20.6450  -18.9220   12.3890 C   0  0  0  0  0  0  0  0  0  0  0  0
  -22.0810  -19.3420   12.0440 C   0  0  0  0  0  0  0  0  0  0  0  0
  -23.1170  -18.4220   11.9030 C   0  0  0  0  0  0  0  0  0  0  0  0
  -24.3980  -18.8600   11.5010 C   0  0  0  0  0  0  0  0  0  0  0  0
  -24.6160  -20.2220   11.2120 C   0  0  0  0  0  0  0  0  0  0  0  0
  -25.7690  -21.0180   10.7820 C   0  0  0  0  0  0  0  0  0  0  0  0
  -25.3450  -22.3570   10.6650 C   0  0  0  0  0  0  0  0  0  0  0  0
  -24.0460  -22.3990   10.9770 N   0  0  0  0  0  0  0  0  0  0  0  0
  -23.2070  -23.6170   11.0130 C   0  0  0  0  0  0  0  0  0  0  0  0
  -22.3890  -23.8390    9.7450 C   0  0  0  0  0  0  0  0  0  0  0  0
  -22.8550  -23.4750    8.4860 C   0  0  0  0  0  0  0  0  0  0  0  0
  -22.0610  -23.7370    7.3490 C   0  0  0  0  0  0  0  0  0  0  0  0
  -20.7790  -24.3560    7.4890 C   0  0  0  0  0  0  0  0  0  0  0  0
  -19.8740  -24.6550    6.2290 C   0  0  0  0  0  0  0  0  0  0  0  0
  -20.1390  -25.7480    5.8240 N   0  0  2  0  0  4  0  0  0  0  0  0
  -19.3470  -26.8510    6.3790 C   0  0  0  0  0  0  0  0  0  0  0  0
  -18.6590  -27.7590    5.3720 C   0  0  0  0  0  0  0  0  0  0  0  0
  -19.4540  -27.9840    4.2150 C   0  0  0  0  0  0  0  0  0  0  0  0
  -19.7420  -26.7140    3.5600 C   0  0  0  0  0  0  0  0  0  0  0  0
  -20.5470  -25.7910    4.4590 C   0  0  0  0  0  0  0  0  0  0  0  0
  -20.3350  -24.7110    8.7250 C   0  0  0  0  0  0  0  0  0  0  0  0
  -21.1370  -24.4530    9.8780 C   0  0  0  0  0  0  0  0  0  0  0  0
  -23.5800  -21.1200   11.3300 C   0  0  0  0  0  0  0  0  0  0  0  0
  -22.2860  -20.6850   11.7320 C   0  0  0  0  0  0  0  0  0  0  0  0
  -19.6290  -19.7970   12.4040 N   0  0  0  0  0  0  0  0  0  0  0  0
  -18.4570  -19.1700   12.6360 N   0  0  0  0  0  0  0  0  0  0  0  0
  -18.7190  -17.8340   12.7410 C   0  0  0  0  0  0  0  0  0  0  0  0
  -17.8090  -16.8440   12.9900 N   0  0  0  0  0  0  0  0  0  0  0  0
  8  7  2  0
  7  6  1  0
 10  9  2  0
 11 10  1  0
 12 11  1  0
 13 12  1  0
 14 13  2  0
 15 14  1  0
 16 17  1  0
 18 17  1  6
 18 19  1  0
 19 20  1  0
 20 21  1  0
 22 21  1  0
 18 23  1  0
 23 22  1  0
 13 25  1  0
 25 24  2  0
 30 31  1  0
 30 29  1  0
  3 30  2  0
 28 29  1  0
  4 28  2  0
  5  4  1  0
  4  3  1  0
 27  5  1  0
  5  6  2  0
 26 27  2  0
 26  8  1  0
 11 26  1  0
  8  9  1  0
 15 16  2  0
 16 24  1  0
  3  2  1  0
  2  1  3  0
M  CHG  1  18   1
M  END
$$$$
