
     RDKit          3D

 29 33  0  0  0  0  0  0  0  0999 V2000
  -16.2441  -16.4399   12.4929 N   0  0  0  0  0  0  0  0  0  0  0  0
  -17.3319  -17.3002   12.1317 C   0  0  0  0  0  0  0  0  0  0  0  0
  -18.7141  -17.0634   12.1840 C   0  0  0  0  0  0  0  0  0  0  0  0
  -19.3626  -18.1084   11.5365 C   0  0  0  0  0  0  0  0  0  0  0  0
  -20.6805  -18.6450   11.8107 C   0  0  0  0  0  0  0  0  0  0  0  0
  -21.8245  -17.8480   11.6024 C   0  0  0  0  0  0  0  0  0  0  0  0
  -23.0754  -18.4790   11.3285 C   0  0  0  0  0  0  0  0  0  0  0  0
  -23.0953  -19.8915   11.3204 C   0  0  0  0  0  0  0  0  0  0  0  0
  -24.0413  -20.8124   10.8066 C   0  0  0  0  0  0  0  0  0  0  0  0
  -23.3412  -22.0823   10.6040 C   0  0  0  0  0  0  0  0  0  0  0  0
  -22.1214  -21.9241   10.9432 N   0  0  0  0  0  0  0  0  0  0  0  0
  -20.9838  -22.7969   10.5826 C   0  0  0  0  0  0  0  0  0  0  0  0
  -20.9168  -23.2228    9.1385 C   0  0  0  0  0  0  0  0  0  0  0  0
  -22.0905  -23.8504    8.4146 C   0  0  0  0  0  0  0  0  0  0  0  0
  -21.8242  -24.7657    7.4663 C   0  0  0  0  0  0  0  0  0  0  0  0
  -20.4828  -25.0648    7.0012 C   0  0  0  0  0  0  0  0  0  0  0  0
  -20.2043  -25.9580    5.7842 C   0  0  0  0  0  0  0  0  0  0  0  0
  -19.1008  -26.5538    5.8689 N   0  0  2  0  0  4  0  0  0  0  0  0
  -18.7628  -27.0921    4.6055 C   0  0  0  0  0  0  0  0  0  0  0  0
  -18.4004  -28.5741    4.4887 C   0  0  0  0  0  0  0  0  0  0  0  0
  -19.0732  -29.3768    5.5354 C   0  0  0  0  0  0  0  0  0  0  0  0
  -18.5649  -28.9140    6.7927 C   0  0  0  0  0  0  0  0  0  0  0  0
  -19.0019  -27.4398    7.0177 C   0  0  0  0  0  0  0  0  0  0  0  0
  -19.4122  -24.3251    7.5411 C   0  0  0  0  0  0  0  0  0  0  0  0
  -19.6802  -23.3490    8.5914 C   0  0  0  0  0  0  0  0  0  0  0  0
  -21.9480  -20.6747   11.5655 C   0  0  0  0  0  0  0  0  0  0  0  0
  -20.7798  -20.0418   12.0540 C   0  0  0  0  0  0  0  0  0  0  0  0
  -18.4408  -18.8441   10.8799 N   0  0  0  0  0  0  0  0  0  0  0  0
  -17.1841  -18.4829   11.3629 N   0  0  0  0  0  0  0  0  0  0  0  0
  8  7  4  0
  7  6  4  0
 10  9  4  0
 11 10  4  0
 12 11  1  0
 13 12  1  0
 14 13  4  0
 15 14  4  0
 16 17  1  0
 18 17  1  6
 18 19  1  0
 19 20  1  0
 20 21  1  0
 22 21  1  0
 18 23  1  0
 23 22  1  0
 13 25  4  0
 25 24  4  0
  2  1  1  0
  2 29  4  0
  3  2  4  0
 28 29  4  0
  4 28  4  0
  5  4  1  0
  4  3  4  0
 27  5  4  0
  5  6  4  0
 26 27  4  0
 26  8  4  0
 11 26  4  0
  8  9  4  0
 15 16  4  0
 16 24  4  0
M  CHG  1  18   1
M  END
$$$$
