
     RDKit          3D

 24 27  0  0  0  0  0  0  0  0999 V2000
  -21.3791  -27.7599    6.8270 C   0  0  0  0  0  0  0  0  0  0  0  0
  -20.5557  -26.6362    6.9836 O   0  0  0  0  0  0  0  0  0  0  0  0
  -21.1276  -25.3677    6.8574 C   0  0  0  0  0  0  0  0  0  0  0  0
  -21.2141  -24.8462    5.5438 C   0  0  0  0  0  0  0  0  0  0  0  0
  -21.3019  -23.4697    5.3776 C   0  0  0  0  0  0  0  0  0  0  0  0
  -21.3957  -22.5983    6.4660 C   0  0  0  0  0  0  0  0  0  0  0  0
  -21.3440  -23.1192    7.7467 C   0  0  0  0  0  0  0  0  0  0  0  0
  -21.0957  -22.1604    8.9138 C   0  0  0  0  0  0  0  0  0  0  0  0
  -22.2703  -22.0303    9.6971 N   0  0  0  0  0  0  0  0  0  0  0  0
  -23.5014  -22.4773    9.3314 C   0  0  0  0  0  0  0  0  0  0  0  0
  -24.4828  -21.6876    9.8816 C   0  0  0  0  0  0  0  0  0  0  0  0
  -23.7825  -20.6434   10.6010 C   0  0  0  0  0  0  0  0  0  0  0  0
  -24.1264  -19.3038   10.9707 C   0  0  0  0  0  0  0  0  0  0  0  0
  -23.1400  -18.3826   11.2983 C   0  0  0  0  0  0  0  0  0  0  0  0
  -21.8520  -18.8285   11.4663 C   0  0  0  0  0  0  0  0  0  0  0  0
  -20.6756  -17.8107   11.4301 C   0  0  0  0  0  0  0  0  0  0  0  0
  -20.0979  -17.2428   12.5793 C   0  0  0  0  0  0  0  0  0  0  0  0
  -18.7541  -17.1017   12.2749 C   0  0  0  0  0  0  0  0  0  0  0  0
  -17.6869  -16.9334   13.1921 N   0  0  0  0  0  0  0  0  0  0  0  0
  -18.5907  -17.4374   10.9465 N   0  0  0  0  0  0  0  0  0  0  0  0
  -19.7947  -17.7615   10.4557 N   0  0  0  0  0  0  0  0  0  0  0  0
  -21.5193  -20.1616   11.2717 C   0  0  0  0  0  0  0  0  0  0  0  0
  -22.4370  -21.0527   10.6550 C   0  0  0  0  0  0  0  0  0  0  0  0
  -21.3325  -24.5185    7.9292 C   0  0  0  0  0  0  0  0  0  0  0  0
 11 12  4  0
 12 13  4  0
 23 12  4  0
 24  7  4  0
  7  8  1  0
  7  6  4  0
  5  6  4  0
  4  5  4  0
  3 24  4  0
  2  1  1  0
 10 11  4  0
 18 19  1  0
 18 20  4  0
 17 18  4  0
 21 20  4  0
 16 21  4  0
 16 17  4  0
 15 16  1  0
 15 14  4  0
 22 15  4  0
 13 14  4  0
 23 22  4  0
  9 23  4  0
  8  9  1  0
  9 10  4  0
  3  4  4  0
  3  2  1  0
M  END
$$$$
