
     RDKit          3D

 34 38  0  0  0  0  0  0  0  0999 V2000
  -15.4560  -22.4170    4.3880 C   0  0  0  0  0  0  0  0  0  0  0  0
  -16.5810  -22.7540    5.3560 C   0  0  2  0  0  0  0  0  0  0  0  0
  -16.5570  -21.8360    6.5810 C   0  0  0  0  0  0  0  0  0  0  0  0
  -16.5590  -24.0300    5.6060 N   0  0  1  0  0  4  0  0  0  0  0  0
  -16.8870  -24.3360    6.8870 C   0  0  0  0  0  0  0  0  0  0  0  0
  -17.8990  -25.4540    7.0430 C   0  0  0  0  0  0  0  0  0  0  0  0
  -18.9560  -25.3340    6.1990 N   0  0  1  0  0  4  0  0  0  0  0  0
  -19.6170  -24.2190    6.2680 C   0  0  0  0  0  0  0  0  0  0  0  0
  -20.5950  -23.9990    7.4830 C   0  0  0  0  0  0  0  0  0  0  0  0
  -21.7080  -23.1630    7.3130 C   0  0  0  0  0  0  0  0  0  0  0  0
  -22.5920  -22.9330    8.3890 C   0  0  0  0  0  0  0  0  0  0  0  0
  -22.3520  -23.5400    9.6300 C   0  0  0  0  0  0  0  0  0  0  0  0
  -23.2770  -23.3340   10.8530 C   0  0  0  0  0  0  0  0  0  0  0  0
  -24.0500  -22.1070   10.8220 N   0  0  0  0  0  0  0  0  0  0  0  0
  -25.3410  -22.0420   10.4840 C   0  0  0  0  0  0  0  0  0  0  0  0
  -25.7410  -20.7050   10.5870 C   0  0  0  0  0  0  0  0  0  0  0  0
  -24.6040  -19.9300   11.0330 C   0  0  0  0  0  0  0  0  0  0  0  0
  -24.3840  -18.5500   11.3170 C   0  0  0  0  0  0  0  0  0  0  0  0
  -23.1110  -18.1140   11.7280 C   0  0  0  0  0  0  0  0  0  0  0  0
  -22.0860  -19.0500   11.8940 C   0  0  0  0  0  0  0  0  0  0  0  0
  -20.6620  -18.6230   12.2520 C   0  0  0  0  0  0  0  0  0  0  0  0
  -19.6520  -19.4910   12.2440 N   0  0  0  0  0  0  0  0  0  0  0  0
  -18.4840  -18.8600   12.5040 N   0  0  0  0  0  0  0  0  0  0  0  0
  -18.7500  -17.5320   12.6400 C   0  0  0  0  0  0  0  0  0  0  0  0
  -17.8080  -16.4960   12.9260 N   0  0  0  0  0  0  0  0  0  0  0  0
  -20.1220  -17.3610   12.4620 C   0  0  0  0  0  0  0  0  0  0  0  0
  -20.7970  -16.0090   12.5530 C   0  0  0  0  0  0  0  0  0  0  0  0
  -21.2710  -14.9760   12.6340 N   0  0  0  0  0  0  0  0  0  0  0  0
  -22.2830  -20.4060   11.5810 C   0  0  0  0  0  0  0  0  0  0  0  0
  -23.5750  -20.8480   11.1610 C   0  0  0  0  0  0  0  0  0  0  0  0
  -21.2480  -24.3640    9.8100 C   0  0  0  0  0  0  0  0  0  0  0  0
  -20.3730  -24.5890    8.7370 C   0  0  0  0  0  0  0  0  0  0  0  0
  -18.4830  -25.4880    4.9370 C   0  0  0  0  0  0  0  0  0  0  0  0
  -17.2160  -24.6940    4.6090 C   0  0  0  0  0  0  0  0  0  0  0  0
 29 20  2  0
 30 29  1  0
 17 18  1  0
 18 19  2  0
 16 17  1  0
 15 16  2  0
 10 11  2  0
 11 12  1  0
  9 10  1  0
  8  9  1  0
  9 32  2  0
  6  5  1  0
  4  5  1  1
  4  2  1  0
  2  1  1  6
  2  3  1  0
 24 25  1  0
 24 23  1  0
 26 24  2  0
 22 23  1  0
 21 22  2  0
 21 26  1  0
 20 21  1  0
 26 27  1  0
 27 28  3  0
 20 19  1  0
 30 17  2  0
 14 30  1  0
 14 15  1  0
 13 14  1  0
 12 13  1  0
 12 31  2  0
  7  8  1  6
  7  6  1  0
  7 33  1  0
  4 34  1  0
 34 33  1  0
 32 31  1  0
M  CHG  2   4   1   7   1
M  END
$$$$
