
     RDKit          3D

 17 18  0  0  0  0  0  0  0  0999 V2000
  -25.7320   18.6890   -8.8990 C   0  0  0  0  0  0  0  0  0  0  0  0
  -24.8770   19.5630   -8.2410 O   0  0  0  0  0  0  0  0  0  0  0  0
  -23.9540   20.2470   -9.0870 C   0  0  0  0  0  0  0  0  0  0  0  0
  -23.1940   21.2590   -8.5830 C   0  0  0  0  0  0  0  0  0  0  0  0
  -22.2840   21.9370   -9.4200 C   0  0  0  0  0  0  0  0  0  0  0  0
  -22.1540   21.5570  -10.7580 C   0  0  0  0  0  0  0  0  0  0  0  0
  -22.9170   20.5250  -11.2660 C   0  0  0  0  0  0  0  0  0  0  0  0
  -22.7660   20.1060  -12.6940 C   0  0  0  0  0  0  0  0  0  0  0  0
  -21.9560   18.9000  -12.7600 O   0  0  0  0  0  0  0  0  0  0  0  0
  -20.5710   19.1380  -12.9260 C   0  0  0  0  0  0  0  0  0  0  0  0
  -20.1500   20.2920  -13.0540 O   0  0  0  0  0  0  0  0  0  0  0  0
  -19.5920   17.9550  -12.9180 C   0  0  0  0  0  0  0  0  0  0  0  0
  -19.9330   16.6170  -12.9230 C   0  0  0  0  0  0  0  0  0  0  0  0
  -18.8080   15.9160  -12.9020 N   0  0  0  0  0  0  0  0  0  0  0  0
  -17.7340   16.7540  -12.8750 N   0  0  0  0  0  0  0  0  0  0  0  0
  -18.2100   18.0310  -12.9000 C   0  0  0  0  0  0  0  0  0  0  0  0
  -23.8220   19.8630  -10.4380 C   0  0  0  0  0  0  0  0  0  0  0  0
 12 13  1  0
 13 14  2  0
 16 15  1  0
 15 14  1  0
 12 16  2  0
  7  6  2  0
  6  5  1  0
  3  4  1  0
  5  4  2  0
  2  1  1  0
  3  2  1  0
 17  3  2  0
  7 17  1  0
  8  7  1  0
  9  8  1  0
 10  9  1  0
 10 12  1  0
 10 11  2  0
M  END
$$$$
