
     RDKit          3D

 15 16  0  0  0  0  0  0  0  0999 V2000
  -22.3418   17.8244  -11.3786 O   0  0  0  0  0  0  0  0  0  0  0  0
  -21.4233   18.3133  -11.9991 C   0  0  0  0  0  0  0  0  0  0  0  0
  -21.5889   19.5863  -12.5975 O   0  0  0  0  0  0  0  0  0  0  0  0
  -22.6388   20.3824  -12.0617 C   0  0  0  0  0  0  0  0  0  0  0  0
  -22.1241   21.2984  -10.9718 C   0  0  0  0  0  0  0  0  0  0  0  0
  -20.8187   21.8049  -11.1014 C   0  0  0  0  0  0  0  0  0  0  0  0
  -20.2504   22.4367  -10.0019 C   0  0  0  0  0  0  0  0  0  0  0  0
  -20.9732   22.6866   -8.8973 C   0  0  0  0  0  0  0  0  0  0  0  0
  -22.2916   22.1973   -8.7612 C   0  0  0  0  0  0  0  0  0  0  0  0
  -22.8813   21.5608   -9.8543 C   0  0  0  0  0  0  0  0  0  0  0  0
  -20.3084   17.3840  -12.5998 C   0  0  0  0  0  0  0  0  0  0  0  0
  -20.2351   17.0571  -13.9172 C   0  0  0  0  0  0  0  0  0  0  0  0
  -18.9144   16.8942  -14.1728 N   0  0  0  0  0  0  0  0  0  0  0  0
  -18.1894   17.0026  -13.0442 N   0  0  0  0  0  0  0  0  0  0  0  0
  -19.0523   17.1501  -12.0244 C   0  0  0  0  0  0  0  0  0  0  0  0
  5 10  4  0
  4  5  1  0
  5  6  4  0
  8  7  4  0
  9  8  4  0
 10  9  4  0
  2  1  2  0
  2 11  1  0
  3  2  1  0
 11 12  4  0
 11 15  4  0
 12 13  4  0
 14 13  4  0
 15 14  4  0
  3  4  1  0
  6  7  4  0
M  END
$$$$
