
     RDKit          3D

 15 16  0  0  0  0  0  0  0  0999 V2000
  -20.2730   20.1820  -12.9720 O   0  0  0  0  0  0  0  0  0  0  0  0
  -20.6830   19.0440  -12.8730 C   0  0  0  0  0  0  0  0  0  0  0  0
  -22.0700   18.7890  -12.7090 O   0  0  0  0  0  0  0  0  0  0  0  0
  -22.8970   19.9700  -12.6340 C   0  0  0  0  0  0  0  0  0  0  0  0
  -23.0480   20.3940  -11.1730 C   0  0  0  0  0  0  0  0  0  0  0  0
  -22.3630   21.5080  -10.7050 C   0  0  0  0  0  0  0  0  0  0  0  0
  -22.4990   21.8830   -9.3780 C   0  0  0  0  0  0  0  0  0  0  0  0
  -23.3020   21.1520   -8.5180 C   0  0  0  0  0  0  0  0  0  0  0  0
  -23.9930   20.0390   -8.9850 C   0  0  0  0  0  0  0  0  0  0  0  0
  -23.8590   19.6620  -10.3140 C   0  0  0  0  0  0  0  0  0  0  0  0
  -19.7220   17.8520  -12.8950 C   0  0  0  0  0  0  0  0  0  0  0  0
  -20.0910   16.5300  -12.9240 C   0  0  0  0  0  0  0  0  0  0  0  0
  -18.9710   15.8070  -12.9280 N   0  0  0  0  0  0  0  0  0  0  0  0
  -17.8790   16.6140  -12.8820 N   0  0  0  0  0  0  0  0  0  0  0  0
  -18.3300   17.8970  -12.8770 C   0  0  0  0  0  0  0  0  0  0  0  0
  5 10  1  0
  4  5  1  0
  5  6  2  0
  8  7  2  0
  9  8  1  0
 10  9  2  0
  2  1  2  0
  2 11  1  0
  3  2  1  0
 11 12  1  0
 11 15  2  0
 12 13  2  0
 14 13  1  0
 15 14  1  0
  3  4  1  0
  6  7  1  0
M  END
$$$$
