
     RDKit          3D

 74 75  0  0  0  0  0  0  0  0999 V2000
   10.8880   39.3080   17.1620 C   0  0  0  0  0  0  0  0  0  0  0  0
   10.0280   38.9060   15.9880 C   0  0  1  0  0  0  0  0  0  0  0  0
    9.4670   37.5490   16.2690 C   0  0  0  0  0  0  0  0  0  0  0  0
    8.8990   39.9150   15.7100 C   0  0  0  0  0  0  0  0  0  0  0  0
    9.2410   41.4140   15.5220 C   0  0  2  0  0  0  0  0  0  0  0  0
    8.0330   42.2350   15.4040 N   0  0  0  0  0  0  0  0  0  0  0  0
    7.8280   43.3760   16.1080 C   0  0  0  0  0  0  0  0  0  0  0  0
    8.6420   43.8130   16.9400 O   0  0  0  0  0  0  0  0  0  0  0  0
    6.5160   44.1530   15.8260 C   0  0  1  0  0  0  0  0  0  0  0  0
    5.7800   43.6100   14.6840 N   0  0  0  0  0  0  0  0  0  0  0  0
    5.6260   44.2150   17.0680 C   0  0  0  0  0  0  0  0  0  0  0  0
    6.1600   45.0840   18.0550 O   0  0  0  0  0  0  0  0  0  0  0  0
   10.1590   41.6640   14.3180 C   0  0  0  0  0  0  0  0  0  0  0  0
    9.6880   41.9700   13.2230 O   0  0  0  0  0  0  0  0  0  0  0  0
   11.4700   41.6080   14.5490 N   0  0  0  0  0  0  0  0  0  0  0  0
   12.4790   41.8730   13.5290 C   0  0  1  0  0  0  0  0  0  0  0  0
   13.8210   42.1900   14.2170 C   0  0  0  0  0  0  0  0  0  0  0  0
   14.9640   42.6760   13.3520 C   0  0  0  0  0  0  0  0  0  0  0  0
   16.1130   42.7310   13.8670 O   0  0  0  0  0  0  0  0  0  0  0  0
   14.7180   43.0170   12.1600 O   0  0  0  0  0  0  0  0  0  0  0  0
   12.6150   40.6820   12.5940 C   0  0  0  0  0  0  0  0  0  0  0  0
   12.5800   39.5420   13.0500 O   0  0  0  0  0  0  0  0  0  0  0  0
   12.7790   40.9530   11.2830 N   0  0  0  0  0  0  0  0  0  0  0  0
   12.9760   39.9380   10.2340 C   0  0  1  0  0  0  0  0  0  0  0  0
   12.6900   40.5360    8.8600 C   0  0  0  0  0  0  0  0  0  0  0  0
   11.3300   40.9060    8.7320 O   0  0  0  0  0  0  0  0  0  0  0  0
   14.4160   39.4380   10.2540 C   0  0  0  0  0  0  0  0  0  0  0  0
   14.7150   38.3550    9.7460 O   0  0  0  0  0  0  0  0  0  0  0  0
   15.3100   40.2710   10.8000 N   0  0  0  0  0  0  0  0  0  0  0  0
   16.7380   40.0120   10.9150 C   0  0  1  0  0  0  0  0  0  0  0  0
   17.3650   41.3760   10.6070 C   0  0  0  0  0  0  0  0  0  0  0  0
   18.1990   41.3210    9.4600 O   0  0  0  0  0  0  0  0  0  0  0  0
   18.0130   42.6710    8.7000 P   0  0  1  0  0  0  0  0  0  0  0  0
   18.7230   42.3460    7.4190 O   0  0  0  0  0  0  0  0  0  0  0  0
   16.5580   43.1470    8.3290 O   0  0  0  0  0  0  0  0  0  0  0  0
   18.7490   43.8010    9.4690 O   0  0  0  0  0  0  0  0  0  0  0  0
   17.1140   39.5670   12.3450 C   0  0  0  0  0  0  0  0  0  0  0  0
   16.4850   40.0060   13.3140 O   0  0  0  0  0  0  0  0  0  0  0  0
   18.1480   38.7220   12.5120 N   0  0  0  0  0  0  0  0  0  0  0  0
   19.0260   38.1030   11.5050 C   0  0  0  0  0  0  0  0  0  0  0  0
   19.4060   36.8270   12.1610 C   0  0  0  0  0  0  0  0  0  0  0  0
   19.3460   37.0350   13.6450 C   0  0  0  0  0  0  0  0  0  0  0  0
   18.5230   38.3110   13.8710 C   0  0  1  0  0  0  0  0  0  0  0  0
   19.3270   39.4020   14.5910 C   0  0  0  0  0  0  0  0  0  0  0  0
   19.8620   40.2790   13.9150 O   0  0  0  0  0  0  0  0  0  0  0  0
   19.4530   39.3980   15.9370 N   0  0  0  0  0  0  0  0  0  0  0  0
   18.8860   38.4650   16.9270 C   0  0  0  0  0  0  0  0  0  0  0  0
   18.8380   39.2860   18.1660 C   0  0  0  0  0  0  0  0  0  0  0  0
   20.0180   40.2000   18.0830 C   0  0  0  0  0  0  0  0  0  0  0  0
   20.2630   40.4370   16.5870 C   0  0  1  0  0  0  0  0  0  0  0  0
   21.7490   40.3820   16.1790 C   0  0  0  0  0  0  0  0  0  0  0  0
   22.4810   39.4530   16.5410 O   0  0  0  0  0  0  0  0  0  0  0  0
   22.1560   41.3330   15.3180 N   0  0  0  0  0  0  0  0  0  0  0  0
   23.5330   41.4380   14.8260 C   0  0  1  0  0  0  0  0  0  0  0  0
   23.5970   42.2780   13.5250 C   0  0  0  0  0  0  0  0  0  0  0  0
   22.7470   41.7730   12.3520 C   0  0  0  0  0  0  0  0  0  0  0  0
   22.2440   42.6940   11.5360 N   0  0  0  0  0  0  0  0  0  0  0  0
   22.5630   40.5660   12.1240 O   0  0  0  0  0  0  0  0  0  0  0  0
   24.3640   42.0570   15.9520 C   0  0  0  0  0  0  0  0  0  0  0  0
   24.0710   43.1810   16.3740 O   0  0  0  0  0  0  0  0  0  0  0  0
   25.3230   41.2900   16.5200 N   0  0  0  0  0  0  0  0  0  0  0  0
   26.1440   41.7600   17.6570 C   0  0  2  0  0  0  0  0  0  0  0  0
   27.6740   41.5500   17.4280 C   0  0  0  0  0  0  0  0  0  0  0  0
   28.3260   40.7690   18.1360 O   0  0  0  0  0  0  0  0  0  0  0  0
   28.2300   42.3020   16.4340 N   0  0  0  0  0  0  0  0  0  0  0  0
   29.6430   42.3230   16.0270 C   0  0  1  0  0  0  0  0  0  0  0  0
   29.9220   41.2130   15.0140 C   0  0  0  0  0  0  0  0  0  0  0  0
   29.7760   39.9290   15.5990 O   0  0  0  0  0  0  0  0  0  0  0  0
   30.0370   43.7020   15.4350 C   0  0  0  0  0  0  0  0  0  0  0  0
   30.3260   43.8420   14.2360 O   0  0  0  0  0  0  0  0  0  0  0  0
   30.0810   44.7270   16.1340 O   0  0  0  0  0  0  0  0  0  0  0  0
   25.6440   41.1760   18.9940 C   0  0  1  0  0  0  0  0  0  0  0  0
   24.3980   41.8880   19.5140 C   0  0  0  0  0  0  0  0  0  0  0  0
   25.4090   39.7710   18.8520 O   0  0  0  0  0  0  0  0  0  0  0  0
  9 10  1  6
  9  7  1  0
  9 11  1  0
  7  8  2  0
  7  6  1  0
 11 12  1  0
  6  5  1  0
  5 13  1  0
  5  4  1  6
 13 14  2  0
 13 15  1  0
  4  2  1  0
  2  1  1  1
  2  3  1  0
 15 16  1  0
 16 21  1  0
 16 17  1  1
 21 22  2  0
 21 23  1  0
 17 18  1  0
 18 20  1  0
 18 19  2  0
 23 24  1  0
 24 27  1  0
 24 25  1  6
 27 28  2  0
 27 29  1  0
 25 26  1  0
 29 30  1  0
 30 31  1  1
 30 37  1  0
 31 32  1  0
 32 33  1  0
 37 38  2  0
 37 39  1  0
 33 34  2  0
 33 35  1  6
 33 36  1  0
 39 43  1  0
 39 40  1  0
 43 44  1  6
 43 42  1  0
 44 45  2  0
 44 46  1  0
 42 41  1  0
 41 40  1  0
 46 50  1  0
 46 47  1  0
 50 51  1  1
 50 49  1  0
 51 52  2  0
 51 53  1  0
 49 48  1  0
 48 47  1  0
 53 54  1  0
 54 59  1  0
 54 55  1  6
 59 60  2  0
 59 61  1  0
 55 56  1  0
 56 58  2  0
 56 57  1  0
 62 61  1  6
 62 63  1  0
 62 72  1  0
 63 64  2  0
 63 65  1  0
 72 74  1  0
 72 73  1  6
 65 66  1  0
 66 69  1  0
 66 67  1  6
 69 71  1  0
 69 70  2  0
 67 68  1  0
M  CHG  1  10   1
M  END
$$$$
