
     RDKit          3D

 79 80  0  0  0  0  0  0  0  0999 V2000
    0.3697   -9.4270   23.5135 H   0  0  0  0  0  0  0  0  0  0  0  0
    0.4534   -9.7686   22.3198 N   0  0  0  0  0  0  0  0  0  0  0  0
    0.3154   -8.6208   21.6491 C   0  0  0  0  0  0  0  0  0  0  0  0
   -0.5407   -8.5482   20.6235 N   0  0  0  0  0  0  0  0  0  0  0  0
    1.0181   -7.5396   21.9724 N   0  0  0  0  0  0  0  0  0  0  0  0
    0.4416   -6.5415   22.9237 C   0  0  0  0  0  0  0  0  0  0  0  0
   -1.0068   -6.1904   22.6416 C   0  0  0  0  0  0  0  0  0  0  0  0
   -1.1655   -4.7071   22.3409 C   0  0  0  0  0  0  0  0  0  0  0  0
   -1.4599   -4.4047   20.8849 C   0  0  1  0  0  0  0  0  0  0  0  0
   -2.0899   -3.1516   20.7684 N   0  0  0  0  0  0  0  0  0  0  0  0
   -2.1679   -2.3111   21.7815 C   0  0  0  0  0  0  0  0  0  0  0  0
   -1.3153   -2.3478   22.6730 O   0  0  0  0  0  0  0  0  0  0  0  0
   -3.4553   -1.5346   22.0191 C   0  0  2  0  0  0  0  0  0  0  0  0
   -3.1244   -0.1805   22.6265 C   0  0  0  0  0  0  0  0  0  0  0  0
   -4.2782    0.8099   22.5816 C   0  0  0  0  0  0  0  0  0  0  0  0
   -4.9952    0.9657   23.9284 C   0  0  0  0  0  0  0  0  0  0  0  0
   -4.5369    2.1470   24.6952 N   0  0  0  0  0  0  0  0  0  0  0  0
   -3.2895    2.4539   24.9293 C   0  0  0  0  0  0  0  0  0  0  0  0
   -2.3241    1.5489   24.9444 N   0  0  0  0  0  0  0  0  0  0  0  0
   -2.9858    3.7205   25.2151 N   0  0  0  0  0  0  0  0  0  0  0  0
   -2.4454    3.6317   26.3344 H   0  0  0  0  0  0  0  0  0  0  0  0
   -4.4003   -2.3174   22.8070 N   0  0  0  0  0  0  0  0  0  0  0  0
   -4.9842   -1.7940   23.9125 C   0  0  0  0  0  0  0  0  0  0  0  0
   -5.2531   -2.5699   24.9433 O   0  0  0  0  0  0  0  0  0  0  0  0
   -4.9908   -0.2976   24.1295 C   0  0  1  0  0  0  0  0  0  0  0  0
   -3.6354    0.1892   24.3032 N   0  0  0  0  0  0  0  0  0  0  0  0
   -2.9401   -0.1361   25.4271 C   0  0  0  0  0  0  0  0  0  0  0  0
   -2.3538    0.7454   26.0819 O   0  0  0  0  0  0  0  0  0  0  0  0
   -2.6751   -1.5718   25.6707 C   0  0  1  0  0  0  0  0  0  0  0  0
   -1.2283   -1.9648   25.1452 C   0  0  0  0  0  0  0  0  0  0  0  0
   -0.6252   -3.0512   26.0241 C   0  0  0  0  0  0  0  0  0  0  0  0
    0.6375   -3.6552   25.3152 C   0  0  0  0  0  0  0  0  0  0  0  0
    1.7518   -3.4484   25.8497 O   0  0  0  0  0  0  0  0  0  0  0  0
    0.4422   -4.5600   24.4745 O   0  0  0  0  0  0  0  0  0  0  0  0
   -2.8806   -2.0206   27.0430 N   0  0  0  0  0  0  0  0  0  0  0  0
   -4.0330   -1.8909   27.6643 C   0  0  0  0  0  0  0  0  0  0  0  0
   -4.0301   -1.8658   29.1618 C   0  0  0  0  0  0  0  0  0  0  0  0
   -5.1415   -1.9452   27.0951 O   0  0  0  0  0  0  0  0  0  0  0  0
   -5.6168    0.4648   22.9373 C   0  0  2  0  0  0  0  0  0  0  0  0
   -7.0797    0.0808   22.7497 C   0  0  0  0  0  0  0  0  0  0  0  0
   -4.8831    0.1798   21.6206 C   0  0  0  0  0  0  0  0  0  0  0  0
   -5.0895    1.1789   20.5620 C   0  0  0  0  0  0  0  0  0  0  0  0
   -0.1679   -4.4125   20.0631 C   0  0  0  0  0  0  0  0  0  0  0  0
    0.1740   -3.3540   19.4374 O   0  0  0  0  0  0  0  0  0  0  0  0
    0.7859   -5.2880   20.4561 N   0  0  0  0  0  0  0  0  0  0  0  0
    0.5306   -6.1250   21.6771 C   0  0  1  0  0  0  0  0  0  0  0  0
    0.4502   -5.2431   22.8995 C   0  0  0  0  0  0  0  0  0  0  0  0
   -0.6217   -5.2467   23.5393 O   0  0  0  0  0  0  0  0  0  0  0  0
    1.4565   -4.3703   23.1265 N   0  0  0  0  0  0  0  0  0  0  0  0
    1.3553   -2.9438   23.0326 C   0  0  0  0  0  0  0  0  0  0  0  0
    2.6980   -2.4713   23.5932 C   0  0  0  0  0  0  0  0  0  0  0  0
    3.2297   -3.5492   24.4240 C   0  0  0  0  0  0  0  0  0  0  0  0
    2.6381   -4.8357   23.8275 C   0  0  1  0  0  0  0  0  0  0  0  0
    2.3333   -5.8042   24.9236 C   0  0  0  0  0  0  0  0  0  0  0  0
    3.0878   -6.7774   25.2046 O   0  0  0  0  0  0  0  0  0  0  0  0
    1.0439   -5.7651   25.3720 N   0  0  0  0  0  0  0  0  0  0  0  0
    0.6790   -6.1490   26.7287 C   0  0  1  0  0  0  0  0  0  0  0  0
    1.3383   -7.4490   27.1889 C   0  0  0  0  0  0  0  0  0  0  0  0
    2.6625   -7.7640   26.5827 C   0  0  0  0  0  0  0  0  0  0  0  0
    3.1278   -9.2084   26.7627 C   0  0  0  0  0  0  0  0  0  0  0  0
    2.2173  -10.0782   26.6734 O   0  0  0  0  0  0  0  0  0  0  0  0
    4.3970   -9.4588   26.6702 O   0  0  0  0  0  0  0  0  0  0  0  0
    1.1210   -4.9970   27.6447 C   0  0  0  0  0  0  0  0  0  0  0  0
    2.3390   -4.7136   27.7415 O   0  0  0  0  0  0  0  0  0  0  0  0
    0.1616   -4.2115   28.1546 N   0  0  0  0  0  0  0  0  0  0  0  0
   -0.2949   -4.4285   29.4992 C   0  0  1  0  0  0  0  0  0  0  0  0
    0.5461   -3.6760   30.5277 C   0  0  0  0  0  0  0  0  0  0  0  0
   -0.2948   -2.7931   31.4335 C   0  0  0  0  0  0  0  0  0  0  0  0
   -1.6259   -2.5080   31.1037 C   0  0  0  0  0  0  0  0  0  0  0  0
   -2.5445   -2.3101   32.1576 C   0  0  0  0  0  0  0  0  0  0  0  0
   -2.0960   -2.2531   33.4430 C   0  0  0  0  0  0  0  0  0  0  0  0
   -0.7666   -2.3635   33.7562 C   0  0  0  0  0  0  0  0  0  0  0  0
    0.1411   -2.5708   32.7170 C   0  0  0  0  0  0  0  0  0  0  0  0
   -1.8057   -4.0133   29.6374 C   0  0  0  0  0  0  0  0  0  0  0  0
   -2.5835   -4.7458   30.2351 O   0  0  0  0  0  0  0  0  0  0  0  0
   -2.0637   -2.7998   29.5695 O   0  0  0  0  0  0  0  0  0  0  0  0
   -0.8143   -6.8732   21.4658 C   0  0  2  0  0  0  0  0  0  0  0  0
   -0.9575   -7.3528   20.0475 C   0  0  0  0  0  0  0  0  0  0  0  0
   -1.9820   -5.9842   21.8322 C   0  0  0  0  0  0  0  0  0  0  0  0
 36 38  2  0
 36 37  1  0
 36 35  1  0
 35 29  1  0
 29 27  1  0
 29 30  1  6
 27 28  2  0
 27 26  1  0
 30 31  1  0
 31 32  1  0
 32 33  2  0
 32 34  1  0
 25 26  1  6
 25 23  1  0
 25 39  1  0
 23 24  2  0
 23 22  1  0
 39 41  1  0
 39 40  1  1
 41 42  1  0
 22 13  1  0
 13 11  1  0
 13 14  1  1
 11 12  2  0
 11 10  1  0
 14 15  1  0
 15 16  1  0
 16 17  1  0
 17 18  1  0
 18 19  1  0
 18 20  2  0
 10  9  1  0
  9 43  1  0
  9  8  1  6
 43 44  2  0
 43 45  1  0
  8  7  1  0
  7  6  1  0
  6  5  1  0
  5  3  1  0
  3  4  1  0
  3  2  2  0
 46 45  1  1
 46 47  1  0
 46 77  1  0
 47 48  2  0
 47 49  1  0
 77 78  1  1
 77 79  1  0
 49 53  1  0
 49 50  1  0
 53 54  1  1
 53 52  1  0
 54 55  2  0
 54 56  1  0
 52 51  1  0
 51 50  1  0
 56 57  1  0
 57 63  1  0
 57 58  1  1
 63 64  2  0
 63 65  1  0
 58 59  1  0
 59 60  1  0
 60 62  1  0
 60 61  2  0
 65 66  1  0
 66 74  1  0
 66 67  1  1
 74 75  2  0
 74 76  1  0
 67 68  1  0
 68 69  4  0
 68 73  4  0
 69 70  4  0
 73 72  4  0
 70 71  4  0
 72 71  4  0
 20 21  1  0
  2  1  1  0
M  END
$$$$
