
     RDKit          3D

 51 52  0  0  0  0  0  0  0  0999 V2000
   -7.7171   -2.6858  -27.9007 H   0  0  0  0  0  0  0  0  0  0  0  0
   -8.2242   -3.6687  -27.4249 N   0  0  0  0  0  0  0  0  0  0  0  0
   -7.4510   -3.9882  -26.4102 C   0  0  0  0  0  0  0  0  0  0  0  0
   -7.8551   -3.7150  -25.1565 N   0  0  0  0  0  0  0  0  0  0  0  0
   -6.3861   -4.7627  -26.6232 N   0  0  0  0  0  0  0  0  0  0  0  0
   -6.0048   -5.3050  -27.8991 C   0  0  0  0  0  0  0  0  0  0  0  0
   -5.2921   -4.2204  -28.7912 C   0  0  0  0  0  0  0  0  0  0  0  0
   -5.7419   -2.8045  -28.4208 C   0  0  0  0  0  0  0  0  0  0  0  0
   -5.4244   -1.8046  -29.5226 C   0  0  2  0  0  0  0  0  0  0  0  0
   -4.4666   -2.3230  -30.4556 N   0  0  0  0  0  0  0  0  0  0  0  0
   -5.0182   -0.4547  -28.9614 C   0  0  0  0  0  0  0  0  0  0  0  0
   -5.5584    0.5976  -29.3292 O   0  0  0  0  0  0  0  0  0  0  0  0
   -4.2479   -0.5340  -27.8612 N   0  0  0  0  0  0  0  0  0  0  0  0
   -4.6108    0.1248  -26.6412 C   0  0  2  0  0  0  0  0  0  0  0  0
   -5.4968    1.3250  -26.9178 C   0  0  0  0  0  0  0  0  0  0  0  0
   -5.5680    1.6444  -28.3915 C   0  0  0  0  0  0  0  0  0  0  0  0
   -4.3796    1.6640  -29.1555 C   0  0  0  0  0  0  0  0  0  0  0  0
   -4.4405    1.6190  -30.4981 C   0  0  0  0  0  0  0  0  0  0  0  0
   -5.6169    1.6664  -31.1601 C   0  0  0  0  0  0  0  0  0  0  0  0
   -5.6898    1.7014  -32.5443 O   0  0  0  0  0  0  0  0  0  0  0  0
   -6.8545    1.7277  -30.4467 C   0  0  0  0  0  0  0  0  0  0  0  0
   -6.7748    1.6191  -29.0741 C   0  0  0  0  0  0  0  0  0  0  0  0
   -3.3447    0.5486  -25.8890 C   0  0  0  0  0  0  0  0  0  0  0  0
   -3.1217    0.1416  -24.7464 O   0  0  0  0  0  0  0  0  0  0  0  0
   -2.7751    1.6304  -26.3581 N   0  0  0  0  0  0  0  0  0  0  0  0
   -2.9854    2.9509  -25.8206 C   0  0  1  0  0  0  0  0  0  0  0  0
   -2.3827    4.0578  -26.7118 C   0  0  0  0  0  0  0  0  0  0  0  0
   -4.4922    3.2137  -25.5675 C   0  0  0  0  0  0  0  0  0  0  0  0
   -5.2732    3.3034  -26.5343 O   0  0  0  0  0  0  0  0  0  0  0  0
   -4.9054    3.0900  -24.3192 N   0  0  0  0  0  0  0  0  0  0  0  0
   -4.0114    3.2420  -23.1769 C   0  0  2  0  0  0  0  0  0  0  0  0
   -2.5995    2.8055  -23.5896 C   0  0  0  0  0  0  0  0  0  0  0  0
   -2.3078    2.7932  -24.7733 O   0  0  0  0  0  0  0  0  0  0  0  0
   -1.7148    2.9263  -22.6483 N   0  0  0  0  0  0  0  0  0  0  0  0
   -1.2043    4.1989  -22.1255 C   0  0  1  0  0  0  0  0  0  0  0  0
   -1.2038    5.2125  -23.3137 C   0  0  0  0  0  0  0  0  0  0  0  0
   -2.2868    5.5741  -23.7806 O   0  0  0  0  0  0  0  0  0  0  0  0
   -0.0269    5.4893  -23.8908 N   0  0  0  0  0  0  0  0  0  0  0  0
    1.2237    4.6681  -23.8059 C   0  0  0  0  0  0  0  0  0  0  0  0
    2.2932    5.6857  -23.9495 C   0  0  0  0  0  0  0  0  0  0  0  0
    1.7057    7.0185  -24.0358 C   0  0  0  0  0  0  0  0  0  0  0  0
    0.2149    6.8406  -24.3387 C   0  0  1  0  0  0  0  0  0  0  0  0
   -0.0478    7.0032  -25.8513 C   0  0  0  0  0  0  0  0  0  0  0  0
    0.9626    7.1624  -26.5211 O   0  0  0  0  0  0  0  0  0  0  0  0
   -1.1606    6.5776  -26.1942 O   0  0  0  0  0  0  0  0  0  0  0  0
   -2.0940    4.7318  -21.0277 C   0  0  2  0  0  0  0  0  0  0  0  0
   -1.4982    4.3683  -19.6578 C   0  0  0  0  0  0  0  0  0  0  0  0
   -3.5127    4.1341  -21.0902 C   0  0  0  0  0  0  0  0  0  0  0  0
   -4.4820    2.4273  -21.9506 C   0  0  1  0  0  0  0  0  0  0  0  0
   -5.1707    1.1066  -22.4393 C   0  0  0  0  0  0  0  0  0  0  0  0
   -3.3575    2.0979  -21.0561 C   0  0  0  0  0  0  0  0  0  0  0  0
  9 10  1  1
  9 11  1  0
  9  8  1  0
 11 12  2  0
 11 13  1  0
  8  7  1  0
  7  6  1  0
  6  5  1  0
  5  3  1  0
  3  4  1  0
  3  2  2  0
 13 14  1  0
 14 23  1  0
 14 15  1  1
 23 24  2  0
 23 25  1  0
 15 16  1  0
 16 17  4  0
 16 22  4  0
 17 18  4  0
 22 21  4  0
 18 19  4  0
 21 19  4  0
 19 20  1  0
 25 26  1  0
 26 28  1  0
 26 27  1  6
 28 29  2  0
 28 30  1  0
 31 30  1  6
 31 32  1  0
 31 49  1  0
 32 33  2  0
 32 34  1  0
 49 50  1  6
 49 51  1  0
 35 34  1  1
 35 36  1  0
 35 46  1  0
 36 37  2  0
 36 38  1  0
 46 47  1  6
 46 48  1  0
 38 42  1  0
 38 39  1  0
 42 43  1  6
 42 41  1  0
 43 44  2  0
 43 45  1  0
 41 40  1  0
 40 39  1  0
  2  1  1  0
M  CHG  1  10   1
M  END
$$$$
