
     RDKit          3D

 55 55  0  0  0  0  0  0  0  0999 V2000
   -3.8670   -2.7110   29.9040 C   0  0  0  0  0  0  0  0  0  0  0  0
   -4.7780   -1.2100   30.1920 S   0  0  0  0  0  0  0  0  0  0  0  0
   -5.8140   -1.1820   28.7260 C   0  0  0  0  0  0  0  0  0  0  0  0
   -5.0190   -1.3770   27.4490 C   0  0  0  0  0  0  0  0  0  0  0  0
   -5.8810   -1.4660   26.1930 C   0  0  2  0  0  0  0  0  0  0  0  0
   -5.0870   -1.8960   25.0530 N   0  0  0  0  0  0  0  0  0  0  0  0
   -5.5130   -2.8180   24.1930 C   0  0  0  0  0  0  0  0  0  0  0  0
   -6.5800   -3.4130   24.3320 O   0  0  0  0  0  0  0  0  0  0  0  0
   -4.6160   -3.0670   22.9840 C   0  0  2  0  0  0  0  0  0  0  0  0
   -5.0450   -4.3020   22.1810 C   0  0  0  0  0  0  0  0  0  0  0  0
   -4.3580   -4.4050   20.8080 C   0  0  0  0  0  0  0  0  0  0  0  0
   -4.6510   -3.2020   19.9300 C   0  0  0  0  0  0  0  0  0  0  0  0
   -5.8910   -3.1200   19.4360 N   0  0  0  0  0  0  0  0  0  0  0  0
   -3.7720   -2.3410   19.6970 O   0  0  0  0  0  0  0  0  0  0  0  0
   -3.2070   -3.1100   23.3600 N   0  0  0  0  0  0  0  0  0  0  0  0
   -2.7400   -3.8930   24.3310 C   0  0  0  0  0  0  0  0  0  0  0  0
   -3.4560   -4.6400   24.9910 O   0  0  0  0  0  0  0  0  0  0  0  0
   -1.2310   -3.8120   24.5460 C   0  0  2  0  0  0  0  0  0  0  0  0
   -0.5340   -4.7160   23.5320 C   0  0  0  0  0  0  0  0  0  0  0  0
    0.9650   -4.5330   23.5230 C   0  0  0  0  0  0  0  0  0  0  0  0
    1.6670   -5.4950   23.1810 O   0  0  0  0  0  0  0  0  0  0  0  0
    1.4410   -3.4320   23.8610 O   0  0  0  0  0  0  0  0  0  0  0  0
   -0.8470   -4.1840   25.8970 N   0  0  0  0  0  0  0  0  0  0  0  0
   -0.7590   -3.2930   26.8750 C   0  0  0  0  0  0  0  0  0  0  0  0
   -1.2570   -2.1790   26.8040 O   0  0  0  0  0  0  0  0  0  0  0  0
    0.0010   -3.7500   28.1260 C   0  0  1  0  0  0  0  0  0  0  0  0
    0.8910   -2.7080   28.6460 N   0  0  0  0  0  0  0  0  0  0  0  0
   -0.9660   -4.1940   29.2180 C   0  0  0  0  0  0  0  0  0  0  0  0
   -1.9930   -5.2050   28.7510 C   0  0  0  0  0  0  0  0  0  0  0  0
   -2.8730   -5.7150   29.8820 C   0  0  0  0  0  0  0  0  0  0  0  0
   -2.5440   -5.4570   31.0590 O   0  0  0  0  0  0  0  0  0  0  0  0
   -3.8990   -6.3690   29.5880 O   0  0  0  0  0  0  0  0  0  0  0  0
   -6.4730   -0.0960   25.8890 C   0  0  0  0  0  0  0  0  0  0  0  0
   -5.7550    0.8230   25.4860 O   0  0  0  0  0  0  0  0  0  0  0  0
   -7.7720    0.0290   26.0770 N   0  0  0  0  0  0  0  0  0  0  0  0
   -8.4610    1.2880   25.7730 C   0  0  2  0  0  0  0  0  0  0  0  0
   -8.0690    2.3490   26.7960 C   0  0  0  0  0  0  0  0  0  0  0  0
   -8.1790    2.1100   28.0110 O   0  0  0  0  0  0  0  0  0  0  0  0
   -7.6410    3.5350   26.3730 N   0  0  0  0  0  0  0  0  0  0  0  0
   -7.3780    3.9480   24.9870 C   0  0  0  0  0  0  0  0  0  0  0  0
   -7.0790    5.4280   25.1200 C   0  0  0  0  0  0  0  0  0  0  0  0
   -6.7800    5.7350   26.5050 C   0  0  0  0  0  0  0  0  0  0  0  0
   -7.2530    4.5550   27.3560 C   0  0  1  0  0  0  0  0  0  0  0  0
   -8.4160    4.9190   28.2600 C   0  0  0  0  0  0  0  0  0  0  0  0
   -9.5790    4.9160   27.8480 O   0  0  0  0  0  0  0  0  0  0  0  0
   -8.0780    5.2210   29.5120 N   0  0  0  0  0  0  0  0  0  0  0  0
   -9.0520    5.3420   30.5970 C   0  0  1  0  0  0  0  0  0  0  0  0
   -8.6870    4.3640   31.7200 C   0  0  0  0  0  0  0  0  0  0  0  0
   -9.7030    4.2980   32.7050 O   0  0  0  0  0  0  0  0  0  0  0  0
   -9.1150    6.7570   31.1600 C   0  0  0  0  0  0  0  0  0  0  0  0
   -8.1410    7.2440   31.7350 O   0  0  0  0  0  0  0  0  0  0  0  0
  -10.1410    7.4290   31.0460 O   0  0  0  0  0  0  0  0  0  0  0  0
   -9.9650    1.0650   25.7650 C   0  0  1  0  0  0  0  0  0  0  0  0
  -10.7000    2.3540   25.4460 C   0  0  0  0  0  0  0  0  0  0  0  0
  -10.3250    0.0060   24.7690 C   0  0  0  0  0  0  0  0  0  0  0  0
 26 27  1  1
 26 24  1  0
 26 28  1  0
 24 25  2  0
 24 23  1  0
 28 29  1  0
 29 30  1  0
 30 31  2  0
 30 32  1  0
 23 18  1  0
 18 16  1  0
 18 19  1  6
 16 17  2  0
 16 15  1  0
 19 20  1  0
 20 22  1  0
 20 21  2  0
 15  9  1  0
  9  7  1  0
  9 10  1  1
  7  8  2  0
  7  6  1  0
 10 11  1  0
 11 12  1  0
 12 14  2  0
 12 13  1  0
  6  5  1  0
  5 33  1  0
  5  4  1  1
 33 34  2  0
 33 35  1  0
  4  3  1  0
  3  2  1  0
  2  1  1  0
 36 35  1  1
 36 37  1  0
 36 53  1  0
 37 38  2  0
 37 39  1  0
 53 54  1  6
 53 55  1  0
 39 43  1  0
 39 40  1  0
 43 44  1  6
 43 42  1  0
 44 45  2  0
 44 46  1  0
 42 41  1  0
 41 40  1  0
 46 47  1  0
 47 50  1  0
 47 48  1  1
 50 52  1  0
 50 51  2  0
 48 49  1  0
M  CHG  1  27   1
M  END
$$$$
