
     RDKit          3D

 26 30  0  0  0  0  0  0  0  0999 V2000
   -1.3220  -17.8820   31.8920 C   0  0  0  0  0  0  0  0  0  0  0  0
   -2.4260  -17.8880   30.8890 N   0  0  1  0  0  0  0  0  0  0  0  0
   -3.2990  -16.6690   31.0300 C   0  0  0  0  0  0  0  0  0  0  0  0
   -4.3310  -16.5630   29.9140 C   0  0  0  0  0  0  0  0  0  0  0  0
   -3.7530  -16.5180   28.4850 C   0  0  2  0  0  0  0  0  0  0  0  0
   -2.7630  -15.3490   28.3790 C   0  0  0  0  0  0  0  0  0  0  0  0
   -4.8860  -16.2790   27.3040 C   0  0  2  0  0  0  0  0  0  0  0  0
   -5.5110  -14.9760   27.5210 N   0  0  0  0  0  0  0  0  0  0  0  0
   -6.7580  -14.7390   27.9670 C   0  0  0  0  0  0  0  0  0  0  0  0
   -7.2240  -13.6030   27.9870 O   0  0  0  0  0  0  0  0  0  0  0  0
   -7.5350  -15.9080   28.4260 C   0  0  0  0  0  0  0  0  0  0  0  0
   -8.6480  -15.7120   29.2530 C   0  0  0  0  0  0  0  0  0  0  0  0
   -9.3920  -16.8010   29.6840 C   0  0  0  0  0  0  0  0  0  0  0  0
   -9.0230  -18.0830   29.3180 C   0  0  0  0  0  0  0  0  0  0  0  0
   -7.9220  -18.2870   28.5010 C   0  0  0  0  0  0  0  0  0  0  0  0
   -7.1840  -17.2080   28.0210 C   0  0  0  0  0  0  0  0  0  0  0  0
   -5.9400  -17.4240   27.1800 C   0  0  1  0  0  0  0  0  0  0  0  0
   -6.1890  -17.4220   25.6820 C   0  0  0  0  0  0  0  0  0  0  0  0
   -7.1760  -18.0310   24.9210 C   0  0  0  0  0  0  0  0  0  0  0  0
   -7.1760  -17.8550   23.5460 C   0  0  0  0  0  0  0  0  0  0  0  0
   -6.1520  -17.1450   22.9260 C   0  0  0  0  0  0  0  0  0  0  0  0
   -5.1410  -16.5550   23.6760 C   0  0  0  0  0  0  0  0  0  0  0  0
   -5.1530  -16.7280   25.0590 C   0  0  0  0  0  0  0  0  0  0  0  0
   -4.2450  -16.2490   25.9900 N   0  0  0  0  0  0  0  0  0  0  0  0
   -2.9820  -17.8540   28.4290 C   0  0  0  0  0  0  0  0  0  0  0  0
   -1.8910  -18.0070   29.4890 C   0  0  0  0  0  0  0  0  0  0  0  0
 23 22  2  0
 22 21  1  0
 18 23  1  0
 24 23  1  0
 18 19  2  0
 17 18  1  6
  7 24  1  6
  7 17  1  0
  7  8  1  0
  5  7  1  0
  8  9  1  0
  9 11  1  0
  9 10  2  0
 17 16  1  0
 16 11  2  0
 16 15  1  0
 15 14  2  0
 14 13  1  0
 11 12  1  0
 12 13  2  0
  4  3  1  0
  4  5  1  0
  3  2  1  0
  5 25  1  0
 25 26  1  0
  2  1  1  1
 21 20  2  0
 20 19  1  0
  5  6  1  1
  2 26  1  0
M  CHG  1   2   1
M  END
$$$$
