
     RDKit          3D

 26 30  0  0  0  0  0  0  0  0999 V2000
   -8.0304  -10.8171   33.2116 C   0  0  0  0  0  0  0  0  0  0  0  0
   -6.8398   -9.9371   33.1980 N   0  0  1  0  0  0  0  0  0  0  0  0
   -5.9844  -10.2067   34.3343 C   0  0  0  0  0  0  0  0  0  0  0  0
   -5.1528  -11.4888   34.1889 C   0  0  0  0  0  0  0  0  0  0  0  0
   -4.2505  -11.5263   32.9194 C   0  0  1  0  0  0  0  0  0  0  0  0
   -3.3095  -10.3206   32.9660 C   0  0  0  0  0  0  0  0  0  0  0  0
   -3.3049  -12.8901   32.8015 C   0  0  2  0  0  0  0  0  0  0  0  0
   -3.1356  -13.4587   34.1769 N   0  0  0  0  0  0  0  0  0  0  0  0
   -1.9603  -13.8313   34.6934 C   0  0  0  0  0  0  0  0  0  0  0  0
   -1.7885  -13.6905   35.9128 O   0  0  0  0  0  0  0  0  0  0  0  0
   -0.8385  -14.0930   33.7584 C   0  0  0  0  0  0  0  0  0  0  0  0
    0.1836  -14.9205   34.1591 C   0  0  0  0  0  0  0  0  0  0  0  0
    1.1730  -15.3520   33.2708 C   0  0  0  0  0  0  0  0  0  0  0  0
    1.1590  -14.7965   31.9862 C   0  0  0  0  0  0  0  0  0  0  0  0
    0.2365  -13.8437   31.6084 C   0  0  0  0  0  0  0  0  0  0  0  0
   -0.8195  -13.5129   32.4998 C   0  0  0  0  0  0  0  0  0  0  0  0
   -1.9888  -12.6471   32.0120 C   0  0  1  0  0  0  0  0  0  0  0  0
   -2.4328  -12.9920   30.5764 C   0  0  0  0  0  0  0  0  0  0  0  0
   -1.7954  -12.8872   29.3721 C   0  0  0  0  0  0  0  0  0  0  0  0
   -2.4533  -13.2604   28.2492 C   0  0  0  0  0  0  0  0  0  0  0  0
   -3.7016  -13.8175   28.2900 C   0  0  0  0  0  0  0  0  0  0  0  0
   -4.3503  -14.0639   29.5522 C   0  0  0  0  0  0  0  0  0  0  0  0
   -3.6042  -13.7219   30.6832 C   0  0  0  0  0  0  0  0  0  0  0  0
   -4.0170  -13.8989   32.0142 N   0  0  0  0  0  0  0  0  0  0  0  0
   -5.2703  -11.3347   31.7862 C   0  0  0  0  0  0  0  0  0  0  0  0
   -6.1120  -10.0061   31.9092 C   0  0  0  0  0  0  0  0  0  0  0  0
 23 22  4  0
 22 21  4  0
 18 23  4  0
 24 23  1  0
 18 19  4  0
 17 18  1  6
  7 24  1  6
  7 17  1  0
  7  8  1  0
  5  7  1  0
  8  9  1  0
  9 11  1  0
  9 10  2  0
 17 16  1  0
 16 11  4  0
 16 15  4  0
 15 14  4  0
 14 13  4  0
 11 12  4  0
 12 13  4  0
  4  3  1  0
  4  5  1  0
  3  2  1  0
  5 25  1  0
 25 26  1  0
  2  1  1  6
 21 20  4  0
 20 19  4  0
  5  6  1  6
  2 26  1  0
M  CHG  1   2   1
M  END
$$$$
