
     RDKit          3D

 16 18  0  0  0  0  0  0  0  0999 V2000
   -7.3700  -14.9060   27.1030 C   0  0  0  0  0  0  0  0  0  0  0  0
   -6.3950  -15.5250   28.1040 C   0  0  1  0  0  0  0  0  0  0  0  0
   -6.6500  -14.8730   29.4610 C   0  0  0  0  0  0  0  0  0  0  0  0
   -6.5300  -17.0560   28.1830 C   0  0  0  0  0  0  0  0  0  0  0  0
   -5.4660  -17.6650   27.2210 C   0  0  1  0  0  0  0  0  0  0  0  0
   -5.1450  -19.1090   27.6330 C   0  0  0  0  0  0  0  0  0  0  0  0
   -5.8920  -17.6050   25.7730 C   0  0  0  0  0  0  0  0  0  0  0  0
   -7.0480  -18.0650   25.1530 C   0  0  0  0  0  0  0  0  0  0  0  0
   -7.2420  -17.8190   23.8000 C   0  0  0  0  0  0  0  0  0  0  0  0
   -6.2970  -17.1150   23.0650 C   0  0  0  0  0  0  0  0  0  0  0  0
   -5.1490  -16.6230   23.6730 C   0  0  0  0  0  0  0  0  0  0  0  0
   -4.9670  -16.8680   25.0350 C   0  0  0  0  0  0  0  0  0  0  0  0
   -3.9060  -16.4610   25.8410 N   0  0  0  0  0  0  0  0  0  0  0  0
   -4.2970  -16.6160   27.2380 C   0  0  2  0  0  0  0  0  0  0  0  0
   -3.0890  -16.8950   28.1150 C   0  0  0  0  0  0  0  0  0  0  0  0
   -4.9460  -15.3090   27.6590 N   0  0  0  0  0  0  0  0  0  0  0  0
  5  4  1  0
  4  2  1  0
  5  6  1  1
 12 11  2  0
  7 12  1  0
 12 13  1  0
  8  9  1  0
  7  8  2  0
 14 15  1  1
  9 10  2  0
  2  1  1  6
  5  7  1  0
  5 14  1  0
  2  3  1  0
  2 16  1  0
 11 10  1  0
 14 13  1  0
 14 16  1  0
M  CHG  1  16   1
M  END
$$$$
