
     RDKit          3D

 23 24  0  0  0  0  0  0  0  0999 V2000
   -5.0081   -4.0712   12.8406 O   0  0  0  0  0  0  0  0  0  0  0  0
   -6.2018   -3.7064   12.8802 C   0  0  0  0  0  0  0  0  0  0  0  0
   -6.5684   -2.4545   12.4710 N   0  0  0  0  0  0  0  0  0  0  0  0
   -7.6931   -1.7532   13.0173 C   0  0  0  0  0  0  0  0  0  0  0  0
   -8.6442   -1.5924   11.8020 C   0  0  2  0  0  0  0  0  0  0  0  0
   -8.8644   -2.9565   11.2229 N   0  0  0  0  0  0  0  0  0  0  0  0
   -7.9286   -3.8365   11.6969 O   0  0  0  0  0  0  0  0  0  0  0  0
   -8.2047   -5.1831   10.8151 S   0  0  1  0  0  0  0  0  0  0  0  0
   -7.3801   -4.9795    9.6610 O   0  0  0  0  0  0  0  0  0  0  0  0
   -7.6968   -6.0905   11.8057 O   0  0  0  0  0  0  0  0  0  0  0  0
   -9.5933   -5.2348   10.6516 O   0  0  0  0  0  0  0  0  0  0  0  0
   -7.9207   -0.6937   10.7273 C   0  0  0  0  0  0  0  0  0  0  0  0
   -6.4955   -1.2252   10.3998 C   0  0  0  0  0  0  0  0  0  0  0  0
   -5.7363   -1.6597   11.6236 C   0  0  1  0  0  0  0  0  0  0  0  0
   -5.1424   -0.4549   12.3990 C   0  0  0  0  0  0  0  0  0  0  0  0
   -5.8942    0.2063   13.1650 O   0  0  0  0  0  0  0  0  0  0  0  0
   -4.0026    0.0876   11.9843 N   0  0  0  0  0  0  0  0  0  0  0  0
   -3.9922    1.3176   11.2805 C   0  0  1  0  0  0  0  0  0  0  0  0
   -3.3198    2.4580   12.0498 C   0  0  0  0  0  0  0  0  0  0  0  0
   -3.5290    3.7766   11.3361 C   0  0  0  0  0  0  0  0  0  0  0  0
   -2.9513    3.7704    9.9353 N   0  0  0  0  0  0  0  0  0  0  0  0
   -3.3199    2.5827    9.1445 C   0  0  0  0  0  0  0  0  0  0  0  0
   -3.3076    1.1962    9.8785 C   0  0  0  0  0  0  0  0  0  0  0  0
 12 13  1  0
  5 12  1  0
 19 20  1  0
 20 21  1  0
 23 22  1  0
 22 21  1  0
  5  4  1  0
  4  3  1  0
  3  2  1  0
  2  1  2  0
 13 14  1  0
 14 15  1  1
  3 14  1  0
 18 19  1  0
 18 23  1  0
 18 17  1  1
 15 17  1  0
 15 16  2  0
  5  6  1  6
  7  6  1  0
  8  9  2  0
  8 10  2  0
  8 11  1  6
  7  8  1  0
M  CHG  2   6   1  21   1
M  END
$$$$
