
     RDKit          3D

 25 27  0  0  0  0  0  0  0  0999 V2000
   34.9330  -10.1350   50.9140 C   0  0  0  0  0  0  0  0  0  0  0  0
   35.1530   -8.6110   51.1550 C   0  0  0  0  0  0  0  0  0  0  0  0
   35.4140   -8.3350   52.5220 O   0  0  0  0  0  0  0  0  0  0  0  0
   34.4420   -7.7880   53.3990 C   0  0  0  0  0  0  0  0  0  0  0  0
   35.0910   -7.3480   54.7350 C   0  0  0  0  0  0  0  0  0  0  0  0
   34.5460   -6.0770   55.0920 O   0  0  0  0  0  0  0  0  0  0  0  0
   35.2550   -5.2840   56.0680 C   0  0  0  0  0  0  0  0  0  0  0  0
   34.7690   -3.9830   56.1680 C   0  0  0  0  0  0  0  0  0  0  0  0
   35.3360   -3.0700   57.0700 C   0  0  0  0  0  0  0  0  0  0  0  0
   36.4110   -3.4680   57.9090 C   0  0  0  0  0  0  0  0  0  0  0  0
   36.9040   -2.5230   58.7510 C   0  0  0  0  0  0  0  0  0  0  0  0
   38.1450   -2.7480   59.6190 C   0  0  0  0  0  0  0  0  0  0  0  0
   38.1810   -1.4060   60.2720 N   0  0  0  0  0  0  0  0  0  0  0  0
   39.3260   -1.1370   61.2640 C   0  0  0  0  0  0  0  0  0  0  0  0
   38.9510   -1.4250   62.7070 C   0  0  2  0  0  0  0  0  0  0  0  0
   37.8440   -0.4160   62.9230 N   0  0  0  0  0  0  0  0  0  0  0  0
   37.2820   -0.6570   64.2200 C   0  0  0  0  0  0  0  0  0  0  0  0
   38.7020   -0.7240   64.9690 C   0  0  1  0  0  0  0  0  0  0  0  0
   38.7100   -1.6750   66.0340 O   0  0  0  0  0  0  0  0  0  0  0  0
   39.7720   -1.0610   63.9210 C   0  0  1  0  0  0  0  0  0  0  0  0
   40.5960   -2.1220   64.5410 O   0  0  0  0  0  0  0  0  0  0  0  0
   37.1830   -0.7400   59.8000 N   0  0  0  0  0  0  0  0  0  0  0  0
   36.4260   -1.3060   58.9460 N   0  0  0  0  0  0  0  0  0  0  0  0
   36.9210   -4.8080   57.8060 C   0  0  0  0  0  0  0  0  0  0  0  0
   36.3380   -5.7030   56.8840 C   0  0  0  0  0  0  0  0  0  0  0  0
  8  7  2  0
  9  8  1  0
  5  4  1  0
  6  5  1  0
  2  1  1  0
  3  2  1  0
 15 14  1  6
 15 16  1  0
 15 20  1  0
 25  7  1  0
  7  6  1  0
 24 25  2  0
  4  3  1  0
 13 14  1  0
 16 17  1  0
 20 21  1  1
 10  9  2  0
 22 13  1  0
 13 12  1  0
 18 19  1  1
 18 17  1  0
 23 22  2  0
 20 18  1  0
 11 23  1  0
 10 24  1  0
 10 11  1  0
 11 12  2  0
M  CHG  1  16   1
M  END
$$$$
