
     RDKit          3D

 23 26  0  0  0  0  0  0  0  0999 V2000
  -45.4739  -18.8230   20.1964 N   0  0  0  0  0  0  0  0  0  0  0  0
  -45.4511  -19.8310   21.1341 C   0  0  0  0  0  0  0  0  0  0  0  0
  -45.4629  -19.7312   22.4478 N   0  0  0  0  0  0  0  0  0  0  0  0
  -45.4611  -21.0282   23.0924 C   0  0  0  0  0  0  0  0  0  0  0  0
  -45.4609  -21.2916   24.4720 C   0  0  0  0  0  0  0  0  0  0  0  0
  -45.4680  -22.5973   24.9751 C   0  0  0  0  0  0  0  0  0  0  0  0
  -45.3501  -23.7276   24.1473 C   0  0  0  0  0  0  0  0  0  0  0  0
  -45.0602  -25.1401   24.8658 C   0  0  0  0  0  0  0  0  0  0  0  0
  -43.8266  -25.1379   25.7462 N   0  0  0  0  0  0  0  0  0  0  0  0
  -43.8803  -25.1259   27.1923 C   0  0  0  0  0  0  0  0  0  0  0  0
  -45.0549  -24.9077   27.6275 O   0  0  0  0  0  0  0  0  0  0  0  0
  -42.9379  -25.7386   28.2271 C   0  0  0  0  0  0  0  0  0  0  0  0
  -43.2891  -26.6036   29.3216 C   0  0  0  0  0  0  0  0  0  0  0  0
  -42.1690  -27.6091   29.4071 C   0  0  0  0  0  0  0  0  0  0  0  0
  -42.2131  -29.0228   29.6922 C   0  0  0  0  0  0  0  0  0  0  0  0
  -41.0566  -29.8121   29.4492 C   0  0  0  0  0  0  0  0  0  0  0  0
  -39.8843  -29.1665   28.9963 C   0  0  0  0  0  0  0  0  0  0  0  0
  -39.8479  -27.8271   28.6287 C   0  0  0  0  0  0  0  0  0  0  0  0
  -41.0628  -27.0610   28.7098 C   0  0  0  0  0  0  0  0  0  0  0  0
  -41.4939  -25.9773   27.9947 N   0  0  0  0  0  0  0  0  0  0  0  0
  -45.4677  -23.5177   22.7501 C   0  0  0  0  0  0  0  0  0  0  0  0
  -45.4479  -22.1715   22.2631 C   0  0  0  0  0  0  0  0  0  0  0  0
  -45.4584  -21.6085   20.5765 S   0  0  0  0  0  0  0  0  0  0  0  0
  4 22  4  0
  4  5  4  0
  3  4  4  0
 19 14  4  0
 19 18  4  0
 20 19  4  0
 10 12  1  0
  9 10  1  0
 10 11  2  0
 12 13  4  0
 12 20  4  0
 13 14  4  0
 14 15  4  0
 15 16  4  0
 17 16  4  0
 18 17  4  0
  7  8  1  0
  8  9  1  0
 21  7  4  0
  7  6  4  0
 22 21  4  0
 22 23  4  0
  2  1  1  0
  2  3  4  0
  2 23  4  0
  5  6  4  0
M  END
$$$$
