
     RDKit          3D

 33 35  0  0  0  0  0  0  0  0999 V2000
  -15.3890  -24.2990  -19.0900 C   0  0  0  0  0  0  0  0  0  0  0  0
  -16.6870  -23.9640  -18.4500 C   0  0  0  0  0  0  0  0  0  0  0  0
  -17.9380  -24.4390  -18.5630 C   0  0  0  0  0  0  0  0  0  0  0  0
  -18.7490  -23.6930  -17.6700 C   0  0  0  0  0  0  0  0  0  0  0  0
  -17.9480  -22.8030  -17.0580 C   0  0  0  0  0  0  0  0  0  0  0  0
  -18.1780  -21.7580  -16.0260 C   0  0  2  0  0  0  0  0  0  0  0  0
  -17.7460  -20.4660  -16.5300 N   0  0  0  0  0  0  0  0  0  0  0  0
  -18.6780  -19.5000  -16.6960 C   0  0  0  0  0  0  0  0  0  0  0  0
  -19.9480  -19.7550  -16.4970 N   0  0  0  0  0  0  0  0  0  0  0  0
  -20.7640  -18.3280  -16.7990 S   0  0  2  0  0  0  0  0  0  0  0  0
  -21.3780  -17.8540  -15.5990 O   0  0  0  0  0  0  0  0  0  0  0  0
  -21.6130  -18.4880  -17.9360 O   0  0  0  0  0  0  0  0  0  0  0  0
  -19.4710  -17.3550  -17.1930 N   0  0  0  0  0  0  0  0  0  0  0  0
  -18.4270  -18.1380  -17.0900 C   0  0  0  0  0  0  0  0  0  0  0  0
  -17.1440  -17.7320  -17.3310 N   0  0  0  0  0  0  0  0  0  0  0  0
  -16.7340  -16.4370  -17.7280 C   0  0  0  0  0  0  0  0  0  0  0  0
  -17.2290  -15.2940  -17.1110 C   0  0  0  0  0  0  0  0  0  0  0  0
  -16.8360  -14.0430  -17.5480 C   0  0  0  0  0  0  0  0  0  0  0  0
  -15.9430  -13.8670  -18.6020 C   0  0  0  0  0  0  0  0  0  0  0  0
  -15.5690  -12.4740  -19.0390 C   0  0  0  0  0  0  0  0  0  0  0  0
  -15.4200  -15.0070  -19.2350 C   0  0  0  0  0  0  0  0  0  0  0  0
  -14.0890  -14.9080  -19.9390 C   0  0  0  0  0  0  0  0  0  0  0  0
  -13.0760  -14.8880  -19.2650 O   0  0  0  0  0  0  0  0  0  0  0  0
  -14.0650  -14.8450  -21.2780 N   0  0  0  0  0  0  0  0  0  0  0  0
  -15.2740  -14.8760  -22.0940 C   0  0  0  0  0  0  0  0  0  0  0  0
  -12.8110  -14.7290  -22.0150 C   0  0  0  0  0  0  0  0  0  0  0  0
  -15.8240  -16.2800  -18.7860 C   0  0  0  0  0  0  0  0  0  0  0  0
  -15.3260  -17.3980  -19.3740 O   0  0  0  0  0  0  0  0  0  0  0  0
  -17.5420  -22.0990  -14.6450 C   0  0  2  0  0  0  0  0  0  0  0  0
  -16.0420  -21.8040  -14.6540 C   0  0  0  0  0  0  0  0  0  0  0  0
  -17.7520  -23.5800  -14.3290 C   0  0  0  0  0  0  0  0  0  0  0  0
  -18.2000  -21.2660  -13.5440 C   0  0  0  0  0  0  0  0  0  0  0  0
  -16.6640  -22.9500  -17.5260 O   0  0  0  0  0  0  0  0  0  0  0  0
 22 24  1  0
 24 25  1  0
 24 26  1  0
 14 13  2  0
 10 13  1  6
 21 19  2  0
 27 21  1  0
 21 22  1  0
 18 19  1  0
 17 18  2  0
 19 20  1  0
 16 27  2  0
 27 28  1  0
 16 17  1  0
 15 16  1  0
  6  5  1  0
  6 29  1  0
  6  7  1  6
  5  4  2  0
  5 33  1  0
 29 30  1  6
  2  3  2  0
  4  3  1  0
  2  1  1  0
 33  2  1  0
 22 23  2  0
  8 14  1  0
 14 15  1  0
  8  9  2  0
  8  7  1  0
 29 31  1  0
 29 32  1  0
  9 10  1  0
 10 11  2  0
 10 12  2  0
M  END
$$$$
