
     RDKit          3D

 33 35  0  0  0  0  0  0  0  0999 V2000
  -23.4892  -19.7948   10.8086 C   0  0  0  0  0  0  0  0  0  0  0  0
  -22.4748  -20.7168   10.2940 C   0  0  0  0  0  0  0  0  0  0  0  0
  -22.2980  -22.0231   10.2345 C   0  0  0  0  0  0  0  0  0  0  0  0
  -21.4492  -22.3067    9.1799 C   0  0  0  0  0  0  0  0  0  0  0  0
  -21.0315  -21.1196    8.6762 C   0  0  0  0  0  0  0  0  0  0  0  0
  -20.0696  -20.7459    7.5949 C   0  0  1  0  0  0  0  0  0  0  0  0
  -19.3804  -19.5261    7.9568 N   0  0  0  0  0  0  0  0  0  0  0  0
  -18.4225  -19.6047    8.9072 C   0  0  0  0  0  0  0  0  0  0  0  0
  -18.3735  -20.6551    9.7157 N   0  0  0  0  0  0  0  0  0  0  0  0
  -16.7480  -20.8936    9.9667 S   0  0  1  0  0  0  0  0  0  0  0  0
  -16.4821  -20.9902   11.3733 O   0  0  0  0  0  0  0  0  0  0  0  0
  -16.3039  -21.9627    9.1418 O   0  0  0  0  0  0  0  0  0  0  0  0
  -16.1620  -19.4171    9.3996 N   0  0  0  0  0  0  0  0  0  0  0  0
  -17.2149  -18.8297    8.9296 C   0  0  0  0  0  0  0  0  0  0  0  0
  -17.1942  -17.5878    8.3870 N   0  0  0  0  0  0  0  0  0  0  0  0
  -17.0960  -16.3438    9.0771 C   0  0  0  0  0  0  0  0  0  0  0  0
  -17.6598  -15.1934    8.6144 C   0  0  0  0  0  0  0  0  0  0  0  0
  -18.1225  -14.2326    9.4506 C   0  0  0  0  0  0  0  0  0  0  0  0
  -18.0272  -14.3631   10.8426 C   0  0  0  0  0  0  0  0  0  0  0  0
  -19.0439  -13.6410   11.7251 C   0  0  0  0  0  0  0  0  0  0  0  0
  -17.2528  -15.3939   11.3466 C   0  0  0  0  0  0  0  0  0  0  0  0
  -16.5179  -15.1835   12.6589 C   0  0  0  0  0  0  0  0  0  0  0  0
  -16.6668  -16.0174   13.5009 O   0  0  0  0  0  0  0  0  0  0  0  0
  -16.0617  -13.9332   12.8889 N   0  0  0  0  0  0  0  0  0  0  0  0
  -14.8466  -13.3828   12.2220 C   0  0  0  0  0  0  0  0  0  0  0  0
  -16.5258  -13.1675   14.0171 C   0  0  0  0  0  0  0  0  0  0  0  0
  -16.7771  -16.3614   10.4388 C   0  0  0  0  0  0  0  0  0  0  0  0
  -15.9954  -17.3874   10.8994 O   0  0  0  0  0  0  0  0  0  0  0  0
  -19.0835  -21.9011    7.2169 C   0  0  2  0  0  0  0  0  0  0  0  0
  -18.4724  -21.6115    5.8265 C   0  0  0  0  0  0  0  0  0  0  0  0
  -19.8258  -23.2120    7.1889 C   0  0  0  0  0  0  0  0  0  0  0  0
  -17.9492  -21.9084    8.2323 C   0  0  0  0  0  0  0  0  0  0  0  0
  -21.5240  -20.1102    9.4614 O   0  0  0  0  0  0  0  0  0  0  0  0
 22 24  1  0
 24 25  1  0
 24 26  1  0
 14 13  2  0
 10 13  1  1
 21 19  4  0
 27 21  4  0
 21 22  1  0
 18 19  4  0
 17 18  4  0
 19 20  1  0
 16 27  4  0
 27 28  1  0
 16 17  4  0
 15 16  1  0
  6  5  1  0
  6 29  1  0
  6  7  1  6
  5  4  4  0
  5 33  4  0
 29 30  1  6
  2  3  4  0
  4  3  4  0
  2  1  1  0
 33  2  4  0
 22 23  2  0
  8 14  1  0
 14 15  1  0
  8  9  2  0
  8  7  1  0
 29 31  1  0
 29 32  1  0
  9 10  1  0
 10 11  2  0
 10 12  2  0
M  END
$$$$
