
     RDKit          3D

 29 31  0  0  0  0  0  0  0  0999 V2000
  -12.9519  -32.9781   49.3723 H   0  0  0  0  0  0  0  0  0  0  0  0
  -12.1780  -32.3680   49.1090 N   0  0  0  0  0  0  0  0  0  0  0  0
  -11.3680  -31.9310   50.0090 N   0  0  0  0  0  0  0  0  0  0  0  0
  -11.3750  -32.1590   51.3090 N   0  0  0  0  0  0  0  0  0  0  0  0
  -10.9590  -33.3880   52.1730 C   0  0  0  0  0  0  0  0  0  0  0  0
   -9.6860  -34.0000   51.4650 C   0  0  0  0  0  0  0  0  0  0  0  0
   -9.0380  -35.0210   52.2270 O   0  0  0  0  0  0  0  0  0  0  0  0
   -8.3570  -34.5350   53.3630 C   0  0  0  0  0  0  0  0  0  0  0  0
   -7.7500  -35.5970   54.2980 C   0  0  0  0  0  0  0  0  0  0  0  0
   -6.6480  -34.8100   54.7940 O   0  0  0  0  0  0  0  0  0  0  0  0
   -5.8020  -35.4650   55.7460 C   0  0  0  0  0  0  0  0  0  0  0  0
   -6.2330  -36.5740   56.5340 C   0  0  0  0  0  0  0  0  0  0  0  0
   -5.3260  -37.1590   57.4830 C   0  0  0  0  0  0  0  0  0  0  0  0
   -4.0080  -36.5820   57.6080 C   0  0  0  0  0  0  0  0  0  0  0  0
   -2.9840  -37.0230   58.4090 C   0  0  0  0  0  0  0  0  0  0  0  0
   -1.8070  -36.4410   58.4710 N   0  0  0  0  0  0  0  0  0  0  0  0
   -1.0740  -37.1180   59.2880 N   0  0  0  0  0  0  0  0  0  0  0  0
   -1.5830  -38.2050   59.8160 N   0  0  0  0  0  0  0  0  0  0  0  0
   -1.0620  -39.2830   60.7900 C   0  0  0  0  0  0  0  0  0  0  0  0
   -1.5800  -39.1520   62.2360 C   0  0  2  0  0  0  0  0  0  0  0  0
   -0.5400  -38.1560   62.7190 N   0  0  0  0  0  0  0  0  0  0  0  0
   -0.8490  -37.8200   64.1000 C   0  0  0  0  0  0  0  0  0  0  0  0
   -1.1180  -39.3310   64.5990 C   0  0  1  0  0  0  0  0  0  0  0  0
   -2.1130  -39.4990   65.6240 O   0  0  0  0  0  0  0  0  0  0  0  0
   -1.3600  -40.1890   63.3340 C   0  0  1  0  0  0  0  0  0  0  0  0
   -2.4190  -41.1950   63.5810 O   0  0  0  0  0  0  0  0  0  0  0  0
   -2.9950  -38.3040   59.2820 C   0  0  0  0  0  0  0  0  0  0  0  0
   -3.6100  -35.4730   56.7630 C   0  0  0  0  0  0  0  0  0  0  0  0
   -4.5110  -34.9160   55.8500 C   0  0  0  0  0  0  0  0  0  0  0  0
 20 19  1  6
 18 19  1  0
 13 14  2  0
 12 13  1  0
 23 22  1  0
 22 21  1  0
 25 23  1  0
 23 24  1  1
 20 25  1  0
 25 26  1  1
 28 14  1  0
 29 28  2  0
 14 15  1  0
 15 27  1  0
 15 16  2  0
 27 18  1  0
 11 12  2  0
 11 29  1  0
 10 11  1  0
  8  9  1  0
  9 10  1  0
  7  8  1  0
  6  5  1  0
  6  7  1  0
  5  4  1  0
 20 21  1  0
 18 17  2  0
 17 16  1  0
  4  3  1  0
  3  2  2  0
  2  1  1  0
M  CHG  2  18   1  21   1
M  END
$$$$
