
     RDKit          3D

 31 35  0  0  0  0  0  0  0  0999 V2000
    0.0659   52.3847   33.7149 C   0  0  0  0  0  0  0  0  0  0  0  0
    0.2163   53.7671   33.7817 O   0  0  0  0  0  0  0  0  0  0  0  0
   -0.6271   54.5498   33.1002 C   0  0  0  0  0  0  0  0  0  0  0  0
   -1.8666   54.8404   33.5593 N   0  0  0  0  0  0  0  0  0  0  0  0
   -2.7813   55.0579   32.5829 C   0  0  0  0  0  0  0  0  0  0  0  0
   -3.1976   56.5187   32.5133 C   0  0  0  0  0  0  0  0  0  0  0  0
   -4.0559   56.7501   31.6787 O   0  0  0  0  0  0  0  0  0  0  0  0
   -2.1583   57.5089   33.0139 C   0  0  2  0  0  0  0  0  0  0  0  0
   -2.3503   58.3090   34.2839 C   0  0  0  0  0  0  0  0  0  0  0  0
   -2.5313   58.9895   32.9466 C   0  0  2  0  0  0  0  0  0  0  0  0
   -3.8527   59.4480   32.4028 C   0  0  0  0  0  0  0  0  0  0  0  0
   -4.6376   58.7745   31.7299 O   0  0  0  0  0  0  0  0  0  0  0  0
   -4.0511   60.7913   32.6064 O   0  0  0  0  0  0  0  0  0  0  0  0
   -2.7458   54.4488   31.3180 N   0  0  0  0  0  0  0  0  0  0  0  0
   -1.4957   54.2157   30.9385 C   0  0  0  0  0  0  0  0  0  0  0  0
   -0.3489   54.5644   31.7069 C   0  0  0  0  0  0  0  0  0  0  0  0
    0.6487   55.4440   31.1872 N   0  0  0  0  0  0  0  0  0  0  0  0
    0.6333   55.6951   29.7254 C   0  0  0  0  0  0  0  0  0  0  0  0
    0.0664   54.5448   28.9441 C   0  0  2  0  0  0  0  0  0  0  0  0
   -1.0089   53.6220   29.4707 C   0  0  0  0  0  0  0  0  0  0  0  0
    0.3913   53.1037   29.2190 C   0  0  0  0  0  0  0  0  0  0  0  0
    1.3277   56.5021   31.9006 C   0  0  0  0  0  0  0  0  0  0  0  0
    2.5241   57.0637   31.3103 C   0  0  0  0  0  0  0  0  0  0  0  0
    2.5774   58.4213   30.9489 C   0  0  0  0  0  0  0  0  0  0  0  0
    1.5647   59.3007   31.3638 C   0  0  0  0  0  0  0  0  0  0  0  0
    0.5694   58.8036   32.1804 C   0  0  0  0  0  0  0  0  0  0  0  0
   -0.0961   59.6886   32.9955 C   0  0  0  0  0  0  0  0  0  0  0  0
   -0.4073   59.3366   34.3213 C   0  0  0  0  0  0  0  0  0  0  0  0
   -0.3429   58.0457   34.7510 C   0  0  0  0  0  0  0  0  0  0  0  0
    0.0932   57.0584   33.8158 C   0  0  0  0  0  0  0  0  0  0  0  0
    0.5314   57.4533   32.5585 C   0  0  0  0  0  0  0  0  0  0  0  0
 29 28  4  0
 30 29  4  0
 27 28  4  0
 26 27  4  0
 22 23  4  0
 22 31  4  0
 17 22  1  0
 23 24  4  0
 24 25  4  0
 26 25  4  0
 16 15  4  0
 17 16  1  0
 16  3  4  0
 15 14  4  0
  5  6  1  0
 14  5  4  0
  4  5  4  0
  8  6  1  6
  6  7  2  0
 10 11  1  1
  8 10  1  0
  9 10  1  0
 11 12  2  0
 11 13  1  0
  2  1  1  0
 21 20  1  0
 19 20  1  0
 19 21  1  0
 31 26  4  0
 31 30  4  0
 18 17  1  0
  8  9  1  0
  3  4  4  0
  3  2  1  0
 19 18  1  6
M  END
$$$$
