
     RDKit          3D

 28 30  0  0  0  0  0  0  0  0999 V2000
   30.0310  -17.0530    1.1920 N   0  0  0  0  0  4  0  0  0  0  0  0
   29.9720  -17.5850   -0.1580 C   0  0  0  0  0  0  0  0  0  0  0  0
   28.6560  -17.2130   -0.8250 C   0  0  0  0  0  0  0  0  0  0  0  0
   27.8390  -18.4540   -1.0900 N   0  0  0  0  0  4  0  0  0  0  0  0
   26.5000  -18.1180   -1.6050 C   0  0  2  0  0  0  0  0  0  0  0  0
   25.6810  -17.4760   -0.4740 C   0  0  0  0  0  0  0  0  0  0  0  0
   24.1970  -17.3490   -0.8310 C   0  0  0  0  0  0  0  0  0  0  0  0
   23.5880  -18.7240   -1.2220 C   0  0  1  0  0  0  0  0  0  0  0  0
   22.1240  -18.5210   -1.6150 C   0  0  0  0  0  0  0  0  0  0  0  0
   21.2710  -18.0750   -0.3940 C   0  0  0  0  0  0  0  0  0  0  0  0
   20.9380  -18.8780    0.4230 O   0  0  0  0  0  0  0  0  0  0  0  0
   20.8720  -16.6480   -0.2420 N   0  0  0  0  0  0  0  0  0  0  0  0
   20.0680  -16.1990    0.9350 C   0  0  1  0  0  0  0  0  0  0  0  0
   20.9900  -16.3380    2.1260 C   0  0  0  0  0  0  0  0  0  0  0  0
   22.0910  -15.2380    2.0130 C   0  0  0  0  0  0  0  0  0  0  0  0
   23.4240  -15.4830    2.2950 C   0  0  0  0  0  0  0  0  0  0  0  0
   24.3540  -14.4440    2.1570 C   0  0  0  0  0  0  0  0  0  0  0  0
   23.9330  -13.1660    1.7330 C   0  0  0  0  0  0  0  0  0  0  0  0
   22.5780  -12.9310    1.4450 C   0  0  0  0  0  0  0  0  0  0  0  0
   22.0740  -11.5580    0.9810 C   0  0  0  0  0  0  0  0  0  0  0  0
   21.6160  -10.7330    1.8030 O   0  0  0  0  0  0  0  0  0  0  0  0
   22.1040  -11.2510   -0.2430 O   0  0  0  0  0  1  0  0  0  0  0  0
   21.6680  -13.9590    1.5720 C   0  0  0  0  0  0  0  0  0  0  0  0
   20.2460  -13.7190    1.2760 O   0  0  0  0  0  0  0  0  0  0  0  0
   19.5580  -14.7180    0.6590 B   0  0  0  0  0  0  0  0  0  0  0  0
   19.6050  -14.5060   -0.6960 O   0  0  0  0  0  3  0  0  0  0  0  0
   24.3450  -19.3780   -2.3780 C   0  0  0  0  0  0  0  0  0  0  0  0
   25.8760  -19.4230   -2.1720 C   0  0  0  0  0  0  0  0  0  0  0  0
 13 25  1  0
 25 26  1  0
 25 24  1  0
 23 19  2  0
 15 23  1  0
 24 23  1  0
 19 20  1  0
 19 18  1  0
 20 22  1  0
 20 21  2  0
 17 18  2  0
 16 17  1  0
 15 16  2  0
 14 15  1  0
 13 14  1  0
 13 12  1  6
  9 10  1  0
 10 12  1  0
 10 11  2  0
  8  9  1  6
  7  8  1  0
  8 27  1  0
  6  7  1  0
  5  6  1  0
  5 28  1  0
  5  4  1  1
  3  2  1  0
  3  4  1  0
  2  1  1  0
 28 27  1  0
M  CHG  4   1   1   4   1  22  -1  26   1
M  END
$$$$
