
     RDKit          3D

 41 44  0  0  0  0  0  0  0  0999 V2000
  -21.1909   15.2277  -18.6950 O   0  0  0  0  0  0  0  0  0  0  0  0
  -21.1464   15.0634  -19.9175 C   0  0  0  0  0  0  0  0  0  0  0  0
  -21.1965   16.0335  -20.7319 O   0  0  0  0  0  0  0  0  0  0  0  0
  -20.9326   13.6712  -20.4553 C   0  0  0  0  0  0  0  0  0  0  0  0
  -21.6676   12.6164  -19.6658 C   0  0  0  0  0  0  0  0  0  0  0  0
  -21.5594   11.2473  -20.3217 C   0  0  0  0  0  0  0  0  0  0  0  0
  -22.9120   10.7320  -20.7330 N   0  0  0  0  0  0  0  0  0  0  0  0
  -23.8093   11.6635  -21.3620 C   0  0  0  0  0  0  0  0  0  0  0  0
  -25.2121   11.6068  -20.8815 C   0  0  2  0  0  0  0  0  0  0  0  0
  -25.7933   12.9225  -20.4650 C   0  0  0  0  0  0  0  0  0  0  0  0
  -26.9066   13.2085  -20.7887 O   0  0  0  0  0  0  0  0  0  0  0  0
  -25.3862   13.4076  -19.3424 O   0  0  0  0  0  0  0  0  0  0  0  0
  -25.5871   10.5899  -20.0439 O   0  0  0  0  0  0  0  0  0  0  0  0
  -24.6512    9.8510  -19.3653 C   0  0  0  0  0  0  0  0  0  0  0  0
  -24.5166   10.0142  -17.9788 C   0  0  0  0  0  0  0  0  0  0  0  0
  -24.6261   11.3478  -17.4663 N   0  0  0  0  0  0  0  0  0  0  0  0
  -24.8997   12.5080  -18.1730 C   0  0  0  0  0  0  0  0  0  0  0  0
  -25.5730   13.4468  -17.7427 O   0  0  0  0  0  0  0  0  0  0  0  0
  -24.1036   12.7141  -19.4760 C   0  0  0  0  0  0  0  0  0  0  0  0
  -23.1160   11.8393  -19.8696 C   0  0  0  0  0  0  0  0  0  0  0  0
  -22.6160   11.9315  -21.1671 C   0  0  0  0  0  0  0  0  0  0  0  0
  -23.1461   12.8013  -22.0491 C   0  0  0  0  0  0  0  0  0  0  0  0
  -23.2265   12.5485  -23.4167 O   0  0  0  0  0  0  0  0  0  0  0  0
  -22.0070   12.5623  -24.1973 C   0  0  0  0  0  0  0  0  0  0  0  0
  -20.8458   12.4061  -23.2477 C   0  0  0  0  0  0  0  0  0  0  0  0
  -19.5570   13.1382  -23.7216 C   0  0  0  0  0  0  0  0  0  0  0  0
  -18.2971   12.3283  -23.3162 C   0  0  0  0  0  0  0  0  0  0  0  0
  -17.4060   13.0237  -22.3515 C   0  0  0  0  0  0  0  0  0  0  0  0
  -16.0837   13.3932  -22.6381 C   0  0  0  0  0  0  0  0  0  0  0  0
  -15.1975   13.6899  -21.6040 C   0  0  0  0  0  0  0  0  0  0  0  0
  -14.0488   14.2872  -21.8532 F   0  0  0  0  0  0  0  0  0  0  0  0
  -15.5684   13.4943  -20.2799 C   0  0  0  0  0  0  0  0  0  0  0  0
  -16.8969   13.3129  -19.9882 C   0  0  0  0  0  0  0  0  0  0  0  0
  -17.8195   13.1164  -20.9960 C   0  0  0  0  0  0  0  0  0  0  0  0
  -19.4977   13.1682  -20.5613 Cl  0  0  0  0  0  0  0  0  0  0  0  0
  -24.0451   13.7687  -21.5893 C   0  0  0  0  0  0  0  0  0  0  0  0
  -24.5123   13.7094  -20.3139 C   0  0  0  0  0  0  0  0  0  0  0  0
  -23.6606    9.1624  -17.3485 C   0  0  0  0  0  0  0  0  0  0  0  0
  -22.5390    8.6769  -18.0247 C   0  0  0  0  0  0  0  0  0  0  0  0
  -22.5410    8.7263  -19.4287 C   0  0  0  0  0  0  0  0  0  0  0  0
  -23.4281    9.6491  -20.0711 C   0  0  0  0  0  0  0  0  0  0  0  0
  6  5  1  0
  7  6  1  0
 19 17  1  0
 20 19  4  0
 19 37  4  0
  5  4  1  0
  4  2  1  0
 38 39  4  0
 15 38  4  0
  2  1  2  0
  2  3  1  0
 41 40  4  0
 41  7  1  0
 14 41  4  0
 39 40  4  0
 16 15  1  0
 15 14  4  0
 17 16  1  0
 17 18  2  0
  7  8  1  0
  8  9  1  0
  9 10  1  6
  9 13  1  0
 21 20  4  0
 22 21  4  0
 22 36  4  0
 23 22  1  0
 24 25  1  0
 24 23  1  0
 25 26  1  0
 10 11  2  0
 10 12  1  0
 26 27  1  0
 27 28  1  0
 28 29  4  0
 28 34  4  0
 29 30  4  0
 30 32  4  0
 30 31  1  0
 32 33  4  0
 33 34  4  0
 34 35  1  0
 36 37  4  0
 14 13  1  0
M  END
$$$$
