
     RDKit          3D

 41 44  0  0  0  0  0  0  0  0999 V2000
  -15.6960   20.5790  -19.2640 O   0  0  0  0  0  0  0  0  0  0  0  0
  -15.7760   19.3370  -19.3120 C   0  0  0  0  0  0  0  0  0  0  0  0
  -15.2270   18.6410  -20.1880 O   0  0  0  0  0  0  0  0  0  0  0  0
  -16.6110   18.6270  -18.2660 C   0  0  0  0  0  0  0  0  0  0  0  0
  -17.8020   17.8950  -18.8610 C   0  0  0  0  0  0  0  0  0  0  0  0
  -18.7560   18.8300  -19.5880 C   0  0  0  0  0  0  0  0  0  0  0  0
  -19.9080   18.1250  -20.1720 N   0  0  0  0  0  0  0  0  0  0  0  0
  -19.8270   17.7580  -21.5870 C   0  0  0  0  0  0  0  0  0  0  0  0
  -21.1490   17.1690  -22.0750 C   0  0  1  0  0  0  0  0  0  0  0  0
  -20.9680   16.4220  -23.3860 C   0  0  0  0  0  0  0  0  0  0  0  0
  -20.6160   17.0300  -24.3720 O   0  0  0  0  0  0  0  0  0  0  0  0
  -21.1690   15.2260  -23.4240 O   0  0  0  0  0  0  0  0  0  0  0  0
  -21.7220   16.2590  -21.1440 O   0  0  0  0  0  0  0  0  0  0  0  0
  -21.8300   16.7440  -19.8700 C   0  0  0  0  0  0  0  0  0  0  0  0
  -22.8640   16.2620  -19.0700 C   0  0  0  0  0  0  0  0  0  0  0  0
  -23.7480   15.2930  -19.6140 N   0  0  0  0  0  0  0  0  0  0  0  0
  -24.8010   14.6620  -19.0360 C   0  0  0  0  0  0  0  0  0  0  0  0
  -25.2160   14.9130  -17.9080 O   0  0  0  0  0  0  0  0  0  0  0  0
  -25.4500   13.5890  -19.8510 C   0  0  0  0  0  0  0  0  0  0  0  0
  -24.9770   13.1730  -21.0930 C   0  0  0  0  0  0  0  0  0  0  0  0
  -25.6160   12.1700  -21.7980 C   0  0  0  0  0  0  0  0  0  0  0  0
  -26.7590   11.5810  -21.2700 C   0  0  0  0  0  0  0  0  0  0  0  0
  -27.4520   10.5810  -21.9000 O   0  0  0  0  0  0  0  0  0  0  0  0
  -26.8650    9.9360  -23.0370 C   0  0  0  0  0  0  0  0  0  0  0  0
  -27.8000    8.8400  -23.4890 C   0  0  0  0  0  0  0  0  0  0  0  0
  -28.1260    7.8080  -22.4110 C   0  0  0  0  0  0  0  0  0  0  0  0
  -29.1090    6.7440  -22.8860 C   0  0  0  0  0  0  0  0  0  0  0  0
  -29.4930    5.8330  -21.7520 C   0  0  0  0  0  0  0  0  0  0  0  0
  -28.7830    4.6690  -21.4530 C   0  0  0  0  0  0  0  0  0  0  0  0
  -29.2010    3.8740  -20.4080 C   0  0  0  0  0  0  0  0  0  0  0  0
  -28.5090    2.7420  -20.1060 F   0  0  0  0  0  0  0  0  0  0  0  0
  -30.3010    4.1590  -19.6540 C   0  0  0  0  0  0  0  0  0  0  0  0
  -31.0110    5.3050  -19.9380 C   0  0  0  0  0  0  0  0  0  0  0  0
  -30.6170    6.1170  -20.9820 C   0  0  0  0  0  0  0  0  0  0  0  0
  -31.5740    7.5430  -21.2930 Cl  0  0  0  0  0  0  0  0  0  0  0  0
  -27.2380   11.9870  -20.0350 C   0  0  0  0  0  0  0  0  0  0  0  0
  -26.5880   12.9820  -19.3370 C   0  0  0  0  0  0  0  0  0  0  0  0
  -23.0140   16.7430  -17.7810 C   0  0  0  0  0  0  0  0  0  0  0  0
  -22.1360   17.6750  -17.2820 C   0  0  0  0  0  0  0  0  0  0  0  0
  -21.1070   18.1480  -18.0600 C   0  0  0  0  0  0  0  0  0  0  0  0
  -20.9500   17.7060  -19.3780 C   0  0  0  0  0  0  0  0  0  0  0  0
  6  5  1  0
  7  6  1  0
 19 17  1  0
 20 19  2  0
 19 37  1  0
  5  4  1  0
  4  2  1  0
 38 39  2  0
 15 38  1  0
  2  1  2  0
  2  3  1  0
 41 40  2  0
 41  7  1  0
 14 41  1  0
 39 40  1  0
 16 15  1  0
 15 14  2  0
 17 16  1  0
 17 18  2  0
  7  8  1  0
  8  9  1  0
  9 10  1  6
  9 13  1  0
 21 20  1  0
 22 21  2  0
 22 36  1  0
 23 22  1  0
 24 25  1  0
 24 23  1  0
 25 26  1  0
 10 11  2  0
 10 12  1  0
 26 27  1  0
 27 28  1  0
 28 29  2  0
 28 34  1  0
 29 30  1  0
 30 32  2  0
 30 31  1  0
 32 33  1  0
 33 34  2  0
 34 35  1  0
 36 37  2  0
 14 13  1  0
M  END
$$$$
