
     RDKit          3D

116118  0  0  0  0  0  0  0  0999 V2000
   -4.0231   -9.2746  -15.0523 H   0  0  0  0  0  0  0  0  0  0  0  0
   -4.8429   -8.9229  -15.7981 N   0  0  0  0  0  0  0  0  0  0  0  0
   -5.8680   -9.7218  -15.6812 C   0  0  0  0  0  0  0  0  0  0  0  0
   -5.6332  -11.0177  -15.5962 N   0  0  0  0  0  0  0  0  0  0  0  0
   -7.1029   -9.2288  -15.8197 N   0  0  0  0  0  0  0  0  0  0  0  0
   -7.6445   -8.0685  -15.1864 C   0  0  0  0  0  0  0  0  0  0  0  0
   -6.7081   -6.9074  -15.1849 C   0  0  0  0  0  0  0  0  0  0  0  0
   -6.8561   -5.9898  -16.3654 C   0  0  0  0  0  0  0  0  0  0  0  0
   -6.6969   -6.6908  -17.7056 C   0  0  1  0  0  0  0  0  0  0  0  0
   -5.2327   -6.8249  -17.9650 N   0  0  0  0  0  0  0  0  0  0  0  0
   -4.6336   -7.9613  -17.7969 C   0  0  0  0  0  0  0  0  0  0  0  0
   -4.0256   -8.1898  -16.7047 O   0  0  0  0  0  0  0  0  0  0  0  0
   -4.7031   -9.0114  -18.8830 C   0  0  2  0  0  0  0  0  0  0  0  0
   -6.1435   -9.0697  -19.3826 C   0  0  0  0  0  0  0  0  0  0  0  0
   -6.1234   -9.8703  -20.5100 O   0  0  0  0  0  0  0  0  0  0  0  0
   -4.1772  -10.2864  -18.4536 N   0  0  0  0  0  0  0  0  0  0  0  0
   -4.1188  -10.6205  -17.1743 C   0  0  0  0  0  0  0  0  0  0  0  0
   -3.7197   -9.7651  -16.3190 O   0  0  0  0  0  0  0  0  0  0  0  0
   -5.0503  -11.7325  -16.7000 C   0  0  1  0  0  0  0  0  0  0  0  0
   -6.3872  -11.6715  -17.3770 C   0  0  0  0  0  0  0  0  0  0  0  0
   -6.8322  -13.1217  -17.4871 C   0  0  0  0  0  0  0  0  0  0  0  0
   -5.5854  -13.8899  -17.7574 C   0  0  0  0  0  0  0  0  0  0  0  0
   -4.4720  -13.0217  -17.3138 N   0  0  0  0  0  0  0  0  0  0  0  0
   -3.3035  -12.8863  -17.9299 C   0  0  0  0  0  0  0  0  0  0  0  0
   -2.6578  -13.9234  -18.3306 O   0  0  0  0  0  0  0  0  0  0  0  0
   -2.4848  -11.6605  -17.5196 C   0  0  0  0  0  0  0  0  0  0  0  0
   -2.9932  -11.0247  -16.3330 N   0  0  0  0  0  0  0  0  0  0  0  0
   -4.2804  -11.0510  -15.9698 C   0  0  0  0  0  0  0  0  0  0  0  0
   -4.5750  -11.2552  -14.8057 O   0  0  0  0  0  0  0  0  0  0  0  0
   -5.3331  -10.5237  -16.9019 C   0  0  2  0  0  0  0  0  0  0  0  0
   -6.7103  -10.8633  -16.3089 C   0  0  0  0  0  0  0  0  0  0  0  0
   -8.0992  -10.2026  -17.3183 S   0  0  0  0  0  0  0  0  0  0  0  0
   -5.2491  -11.0738  -18.2504 N   0  0  0  0  0  0  0  0  0  0  0  0
   -4.3526  -11.9974  -18.5431 C   0  0  0  0  0  0  0  0  0  0  0  0
   -4.6366  -13.1986  -18.5624 O   0  0  0  0  0  0  0  0  0  0  0  0
   -2.8853  -11.6082  -18.6603 C   0  0  2  0  0  0  0  0  0  0  0  0
   -1.9803  -12.6728  -18.0994 C   0  0  0  0  0  0  0  0  0  0  0  0
   -2.6446  -13.5122  -17.0362 C   0  0  2  0  0  0  0  0  0  0  0  0
   -1.6450  -13.9206  -15.9453 C   0  0  0  0  0  0  0  0  0  0  0  0
   -3.3993  -14.7375  -17.5373 C   0  0  0  0  0  0  0  0  0  0  0  0
   -2.6493  -10.3422  -17.9988 N   0  0  0  0  0  0  0  0  0  0  0  0
   -3.4914   -9.3472  -17.9323 C   0  0  0  0  0  0  0  0  0  0  0  0
   -4.5407   -9.3677  -17.2615 O   0  0  0  0  0  0  0  0  0  0  0  0
   -3.3972   -8.3003  -19.0661 C   0  0  1  0  0  0  0  0  0  0  0  0
   -3.6912   -8.9452  -20.4210 C   0  0  0  0  0  0  0  0  0  0  0  0
   -5.2033   -9.0115  -20.4373 C   0  0  0  0  0  0  0  0  0  0  0  0
   -5.6728   -7.8015  -19.6758 C   0  0  0  0  0  0  0  0  0  0  0  0
   -4.4651   -7.2860  -18.9763 N   0  0  0  0  0  0  0  0  0  0  0  0
   -4.0598   -5.9661  -18.8835 C   0  0  0  0  0  0  0  0  0  0  0  0
   -2.8608   -5.6832  -18.7587 O   0  0  0  0  0  0  0  0  0  0  0  0
   -5.0792   -4.9415  -19.2573 C   0  0  2  0  0  0  0  0  0  0  0  0
   -6.3479   -5.3007  -18.6869 N   0  0  0  0  0  0  0  0  0  0  0  0
   -7.1898   -6.1399  -19.3569 C   0  0  0  0  0  0  0  0  0  0  0  0
   -7.0608   -6.4051  -20.5323 O   0  0  0  0  0  0  0  0  0  0  0  0
   -8.5242   -6.4449  -18.7295 C   0  0  2  0  0  0  0  0  0  0  0  0
   -8.4157   -6.9930  -17.3709 N   0  0  0  0  0  0  0  0  0  0  0  0
   -9.1073   -8.0917  -17.0389 C   0  0  0  0  0  0  0  0  0  0  0  0
   -9.3790   -8.8608  -17.9828 O   0  0  0  0  0  0  0  0  0  0  0  0
   -8.9232   -8.6931  -15.6625 C   0  0  1  0  0  0  0  0  0  0  0  0
   -8.9063   -7.5794  -14.5870 C   0  0  0  0  0  0  0  0  0  0  0  0
   -9.9588   -9.6783  -15.3697 N   0  0  0  0  0  0  0  0  0  0  0  0
   -9.6046  -10.7703  -14.5466 C   0  0  0  0  0  0  0  0  0  0  0  0
  -10.2241  -10.8374  -13.4726 O   0  0  0  0  0  0  0  0  0  0  0  0
   -9.1002  -12.0149  -15.1921 C   0  0  0  0  0  0  0  0  0  0  0  0
  -10.0487  -12.9484  -15.6505 C   0  0  0  0  0  0  0  0  0  0  0  0
   -9.8841  -14.3251  -15.3746 C   0  0  0  0  0  0  0  0  0  0  0  0
   -8.6825  -14.7841  -14.8781 C   0  0  0  0  0  0  0  0  0  0  0  0
   -7.6681  -13.8755  -14.5676 C   0  0  0  0  0  0  0  0  0  0  0  0
   -7.7883  -12.4756  -14.8349 C   0  0  0  0  0  0  0  0  0  0  0  0
   -6.6828  -11.7270  -15.0771 N   0  0  0  0  0  0  0  0  0  0  0  0
   -9.3958   -7.3910  -19.6120 C   0  0  2  0  0  0  0  0  0  0  0  0
   -8.6769   -8.7041  -19.7898 C   0  0  0  0  0  0  0  0  0  0  0  0
   -9.6192   -6.7983  -20.8351 O   0  0  0  0  0  0  0  0  0  0  0  0
   -5.1895   -4.7983  -20.7501 C   0  0  2  0  0  0  0  0  0  0  0  0
   -6.6294   -4.2918  -21.1509 C   0  0  0  0  0  0  0  0  0  0  0  0
   -5.0059   -6.0898  -21.3474 O   0  0  0  0  0  0  0  0  0  0  0  0
   -7.3421   -8.1148  -17.6567 C   0  0  0  0  0  0  0  0  0  0  0  0
   -7.5886   -8.6232  -18.7391 O   0  0  0  0  0  0  0  0  0  0  0  0
   -8.0167   -8.4112  -16.5641 N   0  0  0  0  0  0  0  0  0  0  0  0
   -8.7853   -7.4178  -15.8080 C   0  0  1  0  0  0  0  0  0  0  0  0
   -9.0539   -6.1932  -16.6046 C   0  0  0  0  0  0  0  0  0  0  0  0
   -9.9802   -8.0344  -15.1919 C   0  0  0  0  0  0  0  0  0  0  0  0
   -9.9228   -8.3271  -13.9440 O   0  0  0  0  0  0  0  0  0  0  0  0
  -11.1363   -8.0718  -15.8266 N   0  0  0  0  0  0  0  0  0  0  0  0
  -11.2835   -7.5621  -17.2101 C   0  0  1  0  0  0  0  0  0  0  0  0
   -9.9381   -7.4442  -17.8779 C   0  0  0  0  0  0  0  0  0  0  0  0
   -9.9247   -6.4578  -18.9243 O   0  0  0  0  0  0  0  0  0  0  0  0
  -12.2542   -8.4215  -18.0388 C   0  0  0  0  0  0  0  0  0  0  0  0
  -13.2716   -8.8332  -17.4864 O   0  0  0  0  0  0  0  0  0  0  0  0
  -11.6982   -9.2106  -19.0131 N   0  0  0  0  0  0  0  0  0  0  0  0
  -10.4331   -8.4181  -18.5203 C   0  0  2  0  0  0  0  0  0  0  0  0
  -10.2107   -8.8569  -17.0403 C   0  0  0  0  0  0  0  0  0  0  0  0
  -11.2224   -9.2490  -16.4338 O   0  0  0  0  0  0  0  0  0  0  0  0
   -9.0088   -9.4418  -16.7919 N   0  0  0  0  0  0  0  0  0  0  0  0
   -8.8936  -10.8549  -16.3718 C   0  0  2  0  0  0  0  0  0  0  0  0
   -8.4873  -11.6868  -17.5583 C   0  0  0  0  0  0  0  0  0  0  0  0
   -8.2833  -13.1928  -17.2803 C   0  0  2  0  0  0  0  0  0  0  0  0
   -7.6322  -13.3401  -15.9333 C   0  0  0  0  0  0  0  0  0  0  0  0
   -7.4631  -13.7918  -18.3927 C   0  0  0  0  0  0  0  0  0  0  0  0
  -10.2695  -11.3410  -15.8700 C   0  0  0  0  0  0  0  0  0  0  0  0
  -11.2479  -11.3483  -16.6153 O   0  0  0  0  0  0  0  0  0  0  0  0
  -10.2655  -11.8745  -14.6586 N   0  0  0  0  0  0  0  0  0  0  0  0
   -9.3119  -12.8879  -14.2824 C   0  0  1  0  0  0  0  0  0  0  0  0
   -8.1084  -12.2348  -13.5670 C   0  0  0  0  0  0  0  0  0  0  0  0
   -8.5346  -11.1278  -12.8276 O   0  0  0  0  0  0  0  0  0  0  0  0
   -9.8571  -14.0029  -13.4544 C   0  0  0  0  0  0  0  0  0  0  0  0
  -11.1318  -14.1399  -13.3813 O   0  0  0  0  0  0  0  0  0  0  0  0
   -9.0688  -14.6714  -12.6231 N   0  0  0  0  0  0  0  0  0  0  0  0
   -9.1880  -16.1287  -12.4170 C   0  0  0  0  0  0  0  0  0  0  0  0
   -9.0579  -16.5835  -11.0087 C   0  0  0  0  0  0  0  0  0  0  0  0
  -10.1229  -16.9017  -10.2888 O   0  0  0  0  0  0  0  0  0  0  0  0
   -8.0359  -17.2101  -10.6206 O   0  0  0  0  0  0  0  0  0  0  0  0
  -11.0001   -6.9355  -18.3727 C   0  0  1  0  0  0  0  0  0  0  0  0
  -12.3730   -7.0314  -17.7853 C   0  0  0  0  0  0  0  0  0  0  0  0
  -10.0072   -6.0783  -17.5298 C   0  0  0  0  0  0  0  0  0  0  0  0
  -10.1730   -4.6028  -17.7570 C   0  0  0  0  0  0  0  0  0  0  0  0
 62 63  2  0
 62 64  1  0
 62 61  1  0
 64 69  4  0
 64 65  4  0
 69 68  4  0
 69 70  1  0
 68 67  4  0
 67 66  4  0
 66 65  4  0
 61 59  1  0
 59 57  1  0
 59 60  1  6
 57 58  2  0
 57 56  1  0
 55 56  1  6
 55 53  1  0
 55 71  1  0
 53 54  2  0
 53 52  1  0
 71 73  1  0
 71 72  1  1
 51 52  1  1
 51 49  1  0
 51 74  1  0
 49 50  2  0
 49 48  1  0
 74 76  1  0
 74 75  1  6
 48 44  1  0
 48 47  1  0
 44 42  1  6
 44 45  1  0
 42 43  2  0
 42 41  1  0
 45 46  1  0
 46 47  1  0
 41 36  1  0
 36 34  1  0
 36 37  1  1
 34 35  2  0
 34 33  1  0
 37 38  1  0
 38 39  1  6
 38 40  1  0
 33 30  1  0
 30 28  1  0
 30 31  1  1
 28 29  2  0
 28 27  1  0
 31 32  1  0
 27 26  1  0
 26 24  1  0
 24 25  2  0
 24 23  1  0
 23 19  1  0
 23 22  1  0
 19 17  1  1
 19 20  1  0
 17 18  2  0
 17 16  1  0
 20 21  1  0
 21 22  1  0
 16 13  1  0
 13 11  1  0
 13 14  1  1
 11 12  2  0
 11 10  1  0
 14 15  1  0
 10  9  1  0
  9 77  1  0
  9  8  1  6
 77 78  2  0
 77 79  1  0
  8  7  1  0
  7  6  1  0
  6  5  1  0
  5  3  1  0
  3  2  2  0
  3  4  1  0
 79 80  1  0
 80 82  1  0
 80 81  1  6
 82 83  2  0
 82 84  1  0
 84 85  1  0
 85 88  1  0
 85 86  1  6
 88 89  2  0
 88 90  1  0
 86 87  1  0
 91 90  1  1
 91 92  1  0
 91113  1  0
 92 93  2  0
 92 94  1  0
113115  1  0
113114  1  1
115116  1  0
 94 95  1  0
 95100  1  0
 95 96  1  1
100101  2  0
100102  1  0
 96 97  1  0
 97 98  1  6
 97 99  1  0
102103  1  0
103106  1  0
103104  1  1
106107  2  0
106108  1  0
104105  1  0
108109  1  0
109110  1  0
110112  1  0
110111  2  0
  2  1  1  0
M  END
$$$$
