
     RDKit          3D

 28 30  0  0  0  0  0  0  0  0999 V2000
  -27.6631   48.7521    3.9820 C   0  0  0  0  0  0  0  0  0  0  0  0
  -26.2358   49.1550    4.3559 C   0  0  1  0  0  0  0  0  0  0  0  0
  -25.7485   50.3885    3.5714 C   0  0  0  0  0  0  0  0  0  0  0  0
  -26.5000   51.6039    3.9943 C   0  0  0  0  0  0  0  0  0  0  0  0
  -26.3442   51.8282    5.4869 C   0  0  0  0  0  0  0  0  0  0  0  0
  -26.8102   50.6064    6.2041 N   0  0  0  0  0  0  0  0  0  0  0  0
  -27.4186   50.8175    7.6980 S   0  0  1  0  0  0  0  0  0  0  0  0
  -26.3078   50.7230    8.5575 O   0  0  0  0  0  0  0  0  0  0  0  0
  -28.1679   52.0438    7.6840 O   0  0  0  0  0  0  0  0  0  0  0  0
  -28.5383   49.4500    8.0585 C   0  0  0  0  0  0  0  0  0  0  0  0
  -27.9478   48.2538    8.4194 C   0  0  0  0  0  0  0  0  0  0  0  0
  -28.6315   47.2854    9.1298 C   0  0  0  0  0  0  0  0  0  0  0  0
  -28.1767   45.9703    9.3931 N   0  0  0  0  0  0  0  0  0  0  0  0
  -28.1577   45.2906   10.4885 C   0  0  0  0  0  0  0  0  0  0  0  0
  -29.0764   44.5739   10.9007 O   0  0  0  0  0  0  0  0  0  0  0  0
  -27.0385   45.6738   11.4889 C   0  0  0  0  0  0  0  0  0  0  0  0
  -26.0562   44.6783   11.8267 N   0  0  0  0  0  0  0  0  0  0  0  0
  -25.0390   44.8767   12.7751 C   0  0  0  0  0  0  0  0  0  0  0  0
  -24.2871   45.8331   12.8166 O   0  0  0  0  0  0  0  0  0  0  0  0
  -24.8520   43.5454   13.4083 C   0  0  0  0  0  0  0  0  0  0  0  0
  -25.6810   42.6519   12.6218 N   0  0  0  0  0  0  0  0  0  0  0  0
  -26.2570   43.3063   11.5999 C   0  0  0  0  0  0  0  0  0  0  0  0
  -26.4876   42.8728   10.4919 O   0  0  0  0  0  0  0  0  0  0  0  0
  -29.9490   47.5730    9.5848 C   0  0  0  0  0  0  0  0  0  0  0  0
  -30.5621   48.7701    9.1888 C   0  0  0  0  0  0  0  0  0  0  0  0
  -29.9018   49.6480    8.3012 C   0  0  0  0  0  0  0  0  0  0  0  0
  -31.0220   50.6756    7.1773 Br  0  0  0  0  0  0  0  0  0  0  0  0
  -26.0617   49.4192    5.8160 C   0  0  0  0  0  0  0  0  0  0  0  0
  5  4  1  0
  4  3  1  0
  6  5  1  0
 28  2  1  0
  6 28  1  0
 11 12  4  0
 10 11  4  0
 12 13  1  0
 12 24  4  0
  2  1  1  1
  2  3  1  0
  7  6  1  0
  7  8  2  0
  7  9  2  0
  7 10  1  6
 10 26  4  0
 13 14  1  0
 14 15  2  0
 14 16  1  0
 16 17  1  0
 17 18  1  0
 17 22  1  0
 18 19  2  0
 18 20  1  0
 20 21  1  0
 21 22  1  0
 22 23  2  0
 24 25  4  0
 25 26  4  0
 26 27  1  0
M  END
$$$$
