
     RDKit          3D

 33 36  0  0  0  0  0  0  0  0999 V2000
  -26.3616   50.2343    8.0837 C   0  0  0  0  0  0  0  0  0  0  0  0
  -27.2624   51.3684    8.1389 N   0  0  0  0  0  0  0  0  0  0  0  0
  -26.8212   52.6278    7.4797 C   0  0  0  0  0  0  0  0  0  0  0  0
  -28.3930   51.4919    9.2964 S   0  0  1  0  0  0  0  0  0  0  0  0
  -27.7917   51.9964   10.4394 O   0  0  0  0  0  0  0  0  0  0  0  0
  -29.5436   52.1514    8.7094 O   0  0  0  0  0  0  0  0  0  0  0  0
  -28.8758   49.8103    9.6810 C   0  0  0  0  0  0  0  0  0  0  0  0
  -28.1182   49.1351   10.6788 C   0  0  0  0  0  0  0  0  0  0  0  0
  -28.7217   48.2881   11.5752 C   0  0  0  0  0  0  0  0  0  0  0  0
  -28.0819   47.5558   12.6179 N   0  0  0  0  0  0  0  0  0  0  0  0
  -28.4389   46.3846   13.2476 C   0  0  0  0  0  0  0  0  0  0  0  0
  -29.3144   46.3273   14.0830 O   0  0  0  0  0  0  0  0  0  0  0  0
  -27.4184   45.2958   13.1146 C   0  0  0  0  0  0  0  0  0  0  0  0
  -26.5343   45.0552   11.9384 N   0  0  0  0  0  0  0  0  0  0  0  0
  -25.8072   46.0605   11.3020 C   0  0  0  0  0  0  0  0  0  0  0  0
  -24.8933   46.7104   11.8330 O   0  0  0  0  0  0  0  0  0  0  0  0
  -25.8841   45.8018    9.9624 N   0  0  0  0  0  0  0  0  0  0  0  0
  -26.3685   44.4454    9.6790 C   0  0  2  0  0  0  0  0  0  0  0  0
  -25.2396   43.5982    9.0564 C   0  0  0  0  0  0  0  0  0  0  0  0
  -25.7926   42.3644    8.3045 C   0  0  0  0  0  0  0  0  0  0  0  0
  -26.6624   42.8061    7.1494 C   0  0  0  0  0  0  0  0  0  0  0  0
  -27.7577   43.6991    7.6445 C   0  0  0  0  0  0  0  0  0  0  0  0
  -28.9618   43.7233    6.9540 C   0  0  0  0  0  0  0  0  0  0  0  0
  -29.9682   44.5953    7.2455 C   0  0  0  0  0  0  0  0  0  0  0  0
  -29.7746   45.5132    8.2605 C   0  0  0  0  0  0  0  0  0  0  0  0
  -28.6320   45.4357    9.0499 C   0  0  0  0  0  0  0  0  0  0  0  0
  -27.6403   44.4807    8.8240 C   0  0  0  0  0  0  0  0  0  0  0  0
  -26.6905   43.9681   11.1047 C   0  0  0  0  0  0  0  0  0  0  0  0
  -26.6929   42.8129   11.4493 O   0  0  0  0  0  0  0  0  0  0  0  0
  -30.0626   47.8616   11.3546 C   0  0  0  0  0  0  0  0  0  0  0  0
  -30.7530   48.3545   10.2802 C   0  0  0  0  0  0  0  0  0  0  0  0
  -30.1267   49.2383    9.3477 C   0  0  0  0  0  0  0  0  0  0  0  0
  -30.7511   49.2759    7.7497 Cl  0  0  0  0  0  0  0  0  0  0  0  0
  7  4  1  0
  8  7  4  0
  7 32  4  0
 11 13  1  0
 13 14  1  0
  2  1  1  0
  2  3  1  0
  4  2  1  1
  4  5  2  0
  4  6  2  0
  9  8  4  0
 10  9  1  0
  9 30  4  0
 10 11  1  0
 11 12  2  0
 14 15  1  0
 14 28  1  0
 15 16  2  0
 15 17  1  0
 17 18  1  0
 18 19  1  6
 18 27  1  0
 18 28  1  0
 19 20  1  0
 20 21  1  0
 21 22  1  0
 22 23  4  0
 22 27  4  0
 23 24  4  0
 24 25  4  0
 25 26  4  0
 26 27  4  0
 28 29  2  0
 30 31  4  0
 31 32  4  0
 32 33  1  0
M  END
$$$$
