
     RDKit          3D

 33 36  0  0  0  0  0  0  0  0999 V2000
  -26.7280   44.1550    9.5690 C   0  0  0  0  0  0  0  0  0  0  0  0
  -25.8980   44.2130   10.7810 N   0  0  0  0  0  0  0  0  0  0  0  0
  -26.2640   45.2280   11.7800 C   0  0  0  0  0  0  0  0  0  0  0  0
  -24.3930   43.6000   10.7550 S   0  0  2  0  0  0  0  0  0  0  0  0
  -24.4550   42.3700   10.0300 O   0  0  0  0  0  0  0  0  0  0  0  0
  -23.9250   43.5970   12.1100 O   0  0  0  0  0  0  0  0  0  0  0  0
  -23.3810   44.7190    9.7960 C   0  0  0  0  0  0  0  0  0  0  0  0
  -23.9840   45.8800    9.3090 C   0  0  0  0  0  0  0  0  0  0  0  0
  -23.2520   46.8020    8.5610 C   0  0  0  0  0  0  0  0  0  0  0  0
  -23.7630   47.9950    7.9820 N   0  0  0  0  0  0  0  0  0  0  0  0
  -25.0060   48.5450    8.0370 C   0  0  0  0  0  0  0  0  0  0  0  0
  -25.9410   48.0690    8.6720 O   0  0  0  0  0  0  0  0  0  0  0  0
  -25.1530   49.8170    7.1980 C   0  0  0  0  0  0  0  0  0  0  0  0
  -26.1950   50.8340    7.3570 N   0  0  0  0  0  0  0  0  0  0  0  0
  -26.4090   51.5820    8.5060 C   0  0  0  0  0  0  0  0  0  0  0  0
  -25.8300   51.4450    9.5690 O   0  0  0  0  0  0  0  0  0  0  0  0
  -27.4060   52.4620    8.2340 N   0  0  0  0  0  0  0  0  0  0  0  0
  -27.8860   52.4180    6.8510 C   0  0  2  0  0  0  0  0  0  0  0  0
  -27.5180   53.7100    6.0880 C   0  0  0  0  0  0  0  0  0  0  0  0
  -28.6030   54.7730    6.1020 C   0  0  0  0  0  0  0  0  0  0  0  0
  -29.8300   54.2210    5.4190 C   0  0  0  0  0  0  0  0  0  0  0  0
  -30.2830   52.9550    6.0890 C   0  0  0  0  0  0  0  0  0  0  0  0
  -31.6340   52.6160    6.0520 C   0  0  0  0  0  0  0  0  0  0  0  0
  -32.0960   51.4640    6.6590 C   0  0  0  0  0  0  0  0  0  0  0  0
  -31.2190   50.6350    7.3150 C   0  0  0  0  0  0  0  0  0  0  0  0
  -29.8700   50.9510    7.3680 C   0  0  0  0  0  0  0  0  0  0  0  0
  -29.3810   52.1020    6.7510 C   0  0  0  0  0  0  0  0  0  0  0  0
  -27.0180   51.2450    6.3300 C   0  0  0  0  0  0  0  0  0  0  0  0
  -27.0100   50.8030    5.1950 O   0  0  0  0  0  0  0  0  0  0  0  0
  -21.9200   46.5420    8.2630 C   0  0  0  0  0  0  0  0  0  0  0  0
  -21.3080   45.3990    8.7360 C   0  0  0  0  0  0  0  0  0  0  0  0
  -22.0210   44.4880    9.4960 C   0  0  0  0  0  0  0  0  0  0  0  0
  -21.1870   43.0580   10.0320 Cl  0  0  0  0  0  0  0  0  0  0  0  0
  7  4  1  0
  8  7  2  0
  7 32  1  0
 11 13  1  0
 13 14  1  0
  2  1  1  0
  2  3  1  0
  4  2  1  1
  4  5  2  0
  4  6  2  0
  9  8  1  0
 10  9  1  0
  9 30  2  0
 10 11  1  0
 11 12  2  0
 14 15  1  0
 14 28  1  0
 15 16  2  0
 15 17  1  0
 17 18  1  0
 18 19  1  6
 18 27  1  0
 18 28  1  0
 19 20  1  0
 20 21  1  0
 21 22  1  0
 22 23  2  0
 22 27  1  0
 23 24  1  0
 24 25  2  0
 25 26  1  0
 26 27  2  0
 28 29  2  0
 30 31  1  0
 31 32  2  0
 32 33  1  0
M  END
$$$$
