
     RDKit          3D

 30 32  0  0  0  0  0  0  0  0999 V2000
  -31.0529   51.4773    8.6072 C   0  0  0  0  0  0  0  0  0  0  0  0
  -30.1643   50.2112    8.7106 C   0  0  0  0  0  0  0  0  0  0  0  0
  -30.7555   48.9520    8.7454 C   0  0  0  0  0  0  0  0  0  0  0  0
  -30.0080   47.7915    8.8471 C   0  0  0  0  0  0  0  0  0  0  0  0
  -28.6552   47.8531    8.8491 C   0  0  0  0  0  0  0  0  0  0  0  0
  -27.9202   46.6614    9.0905 N   0  0  0  0  0  0  0  0  0  0  0  0
  -28.3247   45.5879    9.8128 C   0  0  0  0  0  0  0  0  0  0  0  0
  -29.3147   44.9069    9.5500 O   0  0  0  0  0  0  0  0  0  0  0  0
  -27.8343   45.6442   11.2841 C   0  0  0  0  0  0  0  0  0  0  0  0
  -26.6512   44.8204   11.4946 N   0  0  0  0  0  0  0  0  0  0  0  0
  -26.2590   44.3525   12.7590 C   0  0  0  0  0  0  0  0  0  0  0  0
  -26.9627   43.5413   13.4036 O   0  0  0  0  0  0  0  0  0  0  0  0
  -24.9263   44.3927   12.8407 N   0  0  0  0  0  0  0  0  0  0  0  0
  -24.3054   44.7879   11.5713 C   0  0  2  0  0  0  0  0  0  0  0  0
  -23.3806   43.6986   11.0360 C   0  0  0  0  0  0  0  0  0  0  0  0
  -23.5994   46.1572   11.6050 C   0  0  0  0  0  0  0  0  0  0  0  0
  -25.5535   44.9061   10.6597 C   0  0  0  0  0  0  0  0  0  0  0  0
  -25.5845   44.5800    9.4777 O   0  0  0  0  0  0  0  0  0  0  0  0
  -28.0106   49.1038    8.7263 C   0  0  0  0  0  0  0  0  0  0  0  0
  -28.7872   50.2322    8.4848 C   0  0  0  0  0  0  0  0  0  0  0  0
  -27.9933   51.5492    7.5115 S   0  0  2  0  0  0  0  0  0  0  0  0
  -26.7370   51.8277    8.1115 O   0  0  0  0  0  0  0  0  0  0  0  0
  -28.9620   52.6009    7.3740 O   0  0  0  0  0  0  0  0  0  0  0  0
  -27.7165   50.9840    6.0184 N   0  0  0  0  0  0  0  0  0  0  0  0
  -28.8512   50.5365    5.2219 C   0  0  0  0  0  0  0  0  0  0  0  0
  -28.5107   49.8497    3.8747 C   0  0  0  0  0  0  0  0  0  0  0  0
  -27.7329   50.7149    2.9416 C   0  0  0  0  0  0  0  0  0  0  0  0
  -26.2346   50.7056    3.1614 C   0  0  0  0  0  0  0  0  0  0  0  0
  -25.7281   51.1154    4.5404 C   0  0  0  0  0  0  0  0  0  0  0  0
  -26.3723   50.4637    5.6954 C   0  0  0  0  0  0  0  0  0  0  0  0
  5  4  4  0
  6  5  1  0
  5 19  4  0
  9  7  1  0
  7  6  1  0
  7  8  2  0
 10  9  1  0
 14 15  1  1
 14 16  1  0
  2  1  1  0
  3  2  4  0
  2 20  4  0
  4  3  4  0
 11 10  1  0
 10 17  1  0
 11 12  2  0
 13 11  1  0
 13 14  1  0
 14 17  1  0
 17 18  2  0
 19 20  4  0
 21 20  1  1
 21 22  2  0
 21 23  2  0
 21 24  1  0
 24 25  1  0
 24 30  1  0
 25 26  1  0
 26 27  1  0
 27 28  1  0
 28 29  1  0
 29 30  1  0
M  END
$$$$
