
     RDKit          3D

 42 47  0  0  0  0  0  0  0  0999 V2000
  -10.1141  -11.6405   12.1645 C   0  0  0  0  0  0  0  0  0  0  0  0
  -10.5724  -11.7176   10.9038 C   0  0  0  0  0  0  0  0  0  0  0  0
  -10.5041  -12.8901   10.2822 N   0  0  0  0  0  0  0  0  0  0  0  0
  -10.9965  -13.1575    9.0084 C   0  0  0  0  0  0  0  0  0  0  0  0
   -9.9856  -13.2423    8.0380 C   0  0  0  0  0  0  0  0  0  0  0  0
   -8.6977  -12.8080    8.2882 C   0  0  0  0  0  0  0  0  0  0  0  0
   -8.0873  -11.8668    7.4966 C   0  0  0  0  0  0  0  0  0  0  0  0
   -8.6485  -11.5420    6.2366 C   0  0  0  0  0  0  0  0  0  0  0  0
   -9.8039  -12.1816    5.8347 C   0  0  0  0  0  0  0  0  0  0  0  0
  -10.4415  -13.1255    6.7265 C   0  0  0  0  0  0  0  0  0  0  0  0
  -12.2310  -12.3740    8.7644 C   0  0  0  0  0  0  0  0  0  0  0  0
  -13.4744  -12.9434    9.0524 C   0  0  0  0  0  0  0  0  0  0  0  0
  -13.5058  -13.9162   10.0862 C   0  0  0  0  0  0  0  0  0  0  0  0
  -14.3140  -13.7296   11.1929 C   0  0  0  0  0  0  0  0  0  0  0  0
  -15.3822  -12.7979   11.1128 C   0  0  0  0  0  0  0  0  0  0  0  0
  -15.8267  -12.2748   12.3892 C   0  0  0  0  0  0  0  0  0  0  0  0
  -14.7815  -13.3576   12.8959 N   0  0  1  0  0  0  0  0  0  0  0  0
  -15.3854  -14.6236   12.2844 C   0  0  0  0  0  0  0  0  0  0  0  0
  -15.8766  -14.2821   10.8917 C   0  0  0  0  0  0  0  0  0  0  0  0
  -14.7259  -13.8136   10.0164 C   0  0  1  0  0  0  0  0  0  0  0  0
  -15.1801  -13.6023    8.6412 N   0  0  0  0  0  0  0  0  0  0  0  0
  -14.7046  -12.7121    7.7332 C   0  0  0  0  0  0  0  0  0  0  0  0
  -13.6154  -12.1157    7.7838 O   0  0  0  0  0  0  0  0  0  0  0  0
  -15.7291  -12.2432    6.9965 N   0  0  0  0  0  0  0  0  0  0  0  0
  -16.7829  -12.9784    7.3442 C   0  0  0  0  0  0  0  0  0  0  0  0
  -17.9164  -13.1535    6.6478 C   0  0  0  0  0  0  0  0  0  0  0  0
  -18.4085  -14.4684    6.4770 C   0  0  0  0  0  0  0  0  0  0  0  0
  -17.7079  -15.5482    7.0118 C   0  0  0  0  0  0  0  0  0  0  0  0
  -17.5386  -16.7489    6.4328 N   0  0  0  0  0  0  0  0  0  0  0  0
  -18.0200  -17.1589    5.1929 C   0  0  0  0  0  0  0  0  0  0  0  0
  -19.2465  -17.2571    4.9989 O   0  0  0  0  0  0  0  0  0  0  0  0
  -17.0770  -17.0989    3.9545 C   0  0  0  0  0  0  0  0  0  0  0  0
  -17.9486  -17.6432    2.7608 C   0  0  0  0  0  0  0  0  0  0  0  0
  -16.7728  -15.1972    7.9698 C   0  0  0  0  0  0  0  0  0  0  0  0
  -16.3418  -13.9727    8.1168 C   0  0  0  0  0  0  0  0  0  0  0  0
  -14.0355  -12.6639   10.6878 C   0  0  0  0  0  0  0  0  0  0  0  0
  -13.6028  -13.0740   12.0642 C   0  0  0  0  0  0  0  0  0  0  0  0
  -15.4571  -11.9487   10.0290 C   0  0  0  0  0  0  0  0  0  0  0  0
  -14.6346  -12.2081    8.9294 C   0  0  0  0  0  0  0  0  0  0  0  0
  -12.0874  -11.0018    9.1776 N   0  0  0  0  0  0  0  0  0  0  0  0
  -11.4562  -10.7632   10.3526 C   0  0  0  0  0  0  0  0  0  0  0  0
  -11.9297   -9.8691   11.1499 O   0  0  0  0  0  0  0  0  0  0  0  0
 41  2  1  0
 40 41  1  0
 41 42  2  0
  2  1  2  0
  3  2  1  0
 11  4  2  0
  4  5  1  0
  4  3  1  0
 12 11  1  0
 11 40  1  0
  5  6  4  0
  5 10  4  0
 13 12  4  0
 39 12  4  0
  6  7  4  0
  7  8  4  0
  9  8  4  0
 10  9  4  0
 14 13  4  0
 15 14  4  0
 15 38  4  0
 16 15  1  0
 38 39  4  0
 17 16  1  6
 19 18  1  0
 18 17  1  0
 20 19  1  0
 20 36  1  0
 20 21  1  1
 36 37  1  0
 37 17  1  0
 21 22  4  0
 22 24  4  0
 22 23  2  0
 35 25  4  0
 26 25  4  0
 25 24  4  0
 34 35  4  0
 35 21  4  0
 27 26  4  0
 28 27  4  0
 28 34  4  0
 29 28  1  0
 30 32  1  0
 30 29  1  0
 30 31  2  0
 32 33  1  0
M  CHG  1  17   1
M  END
$$$$
