
     RDKit          3D

 42 47  0  0  0  0  0  0  0  0999 V2000
  -19.0050  -15.7910    5.9730 C   0  0  0  0  0  0  0  0  0  0  0  0
  -18.1350  -15.4260    6.9970 C   0  0  0  0  0  0  0  0  0  0  0  0
  -17.6860  -14.1650    7.0800 N   0  0  0  0  0  0  0  0  0  0  0  0
  -16.8470  -13.7500    8.0440 C   0  0  0  0  0  0  0  0  0  0  0  0
  -16.4850  -12.3980    7.9830 C   0  0  0  0  0  0  0  0  0  0  0  0
  -16.6590  -11.5400    9.0660 C   0  0  0  0  0  0  0  0  0  0  0  0
  -16.2930  -10.2000    8.9630 C   0  0  0  0  0  0  0  0  0  0  0  0
  -15.7700   -9.7010    7.7720 C   0  0  0  0  0  0  0  0  0  0  0  0
  -15.6110  -10.5520    6.6870 C   0  0  0  0  0  0  0  0  0  0  0  0
  -15.9750  -11.8890    6.7930 C   0  0  0  0  0  0  0  0  0  0  0  0
  -16.4030  -14.6710    9.0190 C   0  0  0  0  0  0  0  0  0  0  0  0
  -15.5270  -14.3660   10.0700 C   0  0  0  0  0  0  0  0  0  0  0  0
  -15.8310  -14.7750   11.3670 C   0  0  0  0  0  0  0  0  0  0  0  0
  -14.9620  -14.4840   12.4200 C   0  0  0  0  0  0  0  0  0  0  0  0
  -13.7720  -13.7970   12.1830 C   0  0  0  0  0  0  0  0  0  0  0  0
  -12.8850  -13.4860   13.2160 C   0  0  0  0  0  0  0  0  0  0  0  0
  -12.7290  -14.5940   14.1670 N   0  0  1  0  0  0  0  0  0  0  0  0
  -11.8450  -15.6190   13.5860 C   0  0  0  0  0  0  0  0  0  0  0  0
  -11.6640  -16.7790   14.5480 C   0  0  0  0  0  0  0  0  0  0  0  0
  -11.0840  -16.2590   15.8570 C   0  0  2  0  0  0  0  0  0  0  0  0
  -10.8630  -17.3570   16.8370 N   0  0  0  0  0  0  0  0  0  0  0  0
  -11.6720  -18.3180   17.2750 C   0  0  0  0  0  0  0  0  0  0  0  0
  -12.8410  -18.4880   16.9210 O   0  0  0  0  0  0  0  0  0  0  0  0
  -11.0240  -19.0770   18.1590 N   0  0  0  0  0  0  0  0  0  0  0  0
   -9.7900  -18.5790   18.2750 C   0  0  0  0  0  0  0  0  0  0  0  0
   -8.7410  -18.9510   19.0170 C   0  0  0  0  0  0  0  0  0  0  0  0
   -7.5300  -18.2580   18.9600 C   0  0  0  0  0  0  0  0  0  0  0  0
   -7.4450  -17.1390   18.1310 C   0  0  0  0  0  0  0  0  0  0  0  0
   -6.3570  -16.3660   17.9210 N   0  0  0  0  0  0  0  0  0  0  0  0
   -5.5420  -15.7800   18.8450 C   0  0  0  0  0  0  0  0  0  0  0  0
   -4.6040  -15.0670   18.4920 O   0  0  0  0  0  0  0  0  0  0  0  0
   -5.7500  -16.0110   20.3510 C   0  0  0  0  0  0  0  0  0  0  0  0
   -4.3710  -16.1900   21.0010 C   0  0  0  0  0  0  0  0  0  0  0  0
   -8.5700  -16.8260   17.3770 C   0  0  0  0  0  0  0  0  0  0  0  0
   -9.7000  -17.5220   17.4630 C   0  0  0  0  0  0  0  0  0  0  0  0
  -11.9830  -15.1770   16.4300 C   0  0  0  0  0  0  0  0  0  0  0  0
  -12.1320  -14.0700   15.4070 C   0  0  0  0  0  0  0  0  0  0  0  0
  -13.4630  -13.4020   10.8900 C   0  0  0  0  0  0  0  0  0  0  0  0
  -14.3280  -13.6950    9.8440 C   0  0  0  0  0  0  0  0  0  0  0  0
  -16.8620  -15.9950    8.9490 N   0  0  0  0  0  0  0  0  0  0  0  0
  -17.7340  -16.3760    7.9260 C   0  0  0  0  0  0  0  0  0  0  0  0
  -18.1380  -17.5360    7.8580 O   0  0  0  0  0  0  0  0  0  0  0  0
 41  2  1  0
 40 41  1  0
 41 42  2  0
  2  1  2  0
  3  2  1  0
 11  4  2  0
  4  5  1  0
  4  3  1  0
 12 11  1  0
 11 40  1  0
  5  6  2  0
  5 10  1  0
 13 12  2  0
 39 12  1  0
  6  7  1  0
  7  8  2  0
  9  8  1  0
 10  9  2  0
 14 13  1  0
 15 14  2  0
 15 38  1  0
 16 15  1  0
 38 39  2  0
 17 16  1  6
 19 18  1  0
 18 17  1  0
 20 19  1  0
 20 36  1  0
 20 21  1  1
 36 37  1  0
 37 17  1  0
 21 22  1  0
 22 24  1  0
 22 23  2  0
 35 25  2  0
 26 25  1  0
 25 24  1  0
 34 35  1  0
 35 21  1  0
 27 26  2  0
 28 27  1  0
 28 34  2  0
 29 28  1  0
 30 32  1  0
 30 29  1  0
 30 31  2  0
 32 33  1  0
M  CHG  1  17   1
M  END
$$$$
