
     RDKit          3D

138143  0  0  0  0  0  0  0  0999 V2000
    0.1808   17.8952   21.6123 C   0  0  0  0  0  0  0  0  0  0  0  0
    2.1124   17.9253   21.5850 S   0  0  0  0  0  0  0  0  0  0  0  0
    2.9339   17.0041   20.2791 C   0  0  0  0  0  0  0  0  0  0  0  0
    3.8958   15.8812   20.6277 C   0  0  0  0  0  0  0  0  0  0  0  0
    5.2164   16.0331   19.6555 C   0  0  1  0  0  0  0  0  0  0  0  0
    4.6287   16.2657   18.3163 N   0  0  0  0  0  0  0  0  0  0  0  0
    4.1006   15.3703   17.4874 C   0  0  0  0  0  0  0  0  0  0  0  0
    4.8059   14.6765   16.6864 O   0  0  0  0  0  0  0  0  0  0  0  0
    2.6152   15.0138   17.6968 C   0  0  1  0  0  0  0  0  0  0  0  0
    1.9641   15.8112   18.8403 C   0  0  0  0  0  0  0  0  0  0  0  0
    0.5114   15.8835   18.4523 C   0  0  0  0  0  0  0  0  0  0  0  0
    0.2625   14.4489   17.9723 C   0  0  0  0  0  0  0  0  0  0  0  0
    1.6071   14.9359   16.6467 N   0  0  0  0  0  0  0  0  0  0  0  0
    0.9791   16.0011   16.1112 C   0  0  0  0  0  0  0  0  0  0  0  0
   -0.2155   16.3112   16.4003 O   0  0  0  0  0  0  0  0  0  0  0  0
    1.4798   16.6272   14.7555 C   0  0  2  0  0  0  0  0  0  0  0  0
    2.6128   17.5460   15.0251 N   0  0  0  0  0  0  0  0  0  0  0  0
    2.4965   18.6284   15.8009 C   0  0  0  0  0  0  0  0  0  0  0  0
    2.9874   19.9003   15.0880 C   0  0  0  0  0  0  0  0  0  0  0  0
    1.6198   18.7031   16.7006 O   0  0  0  0  0  0  0  0  0  0  0  0
    0.3229   17.4090   14.0400 C   0  0  1  0  0  0  0  0  0  0  0  0
   -0.2090   18.6063   14.8955 C   0  0  0  0  0  0  0  0  0  0  0  0
    0.7999   17.9026   12.6697 C   0  0  0  0  0  0  0  0  0  0  0  0
    5.8595   17.4077   20.1860 C   0  0  0  0  0  0  0  0  0  0  0  0
    6.9568   17.6505   19.6632 O   0  0  0  0  0  0  0  0  0  0  0  0
    4.8396   18.4448   20.1384 N   0  0  0  0  0  0  0  0  0  0  0  0
    4.2699   18.9931   19.0020 C   0  0  2  0  0  0  0  0  0  0  0  0
    2.9667   19.6884   19.1607 C   0  0  0  0  0  0  0  0  0  0  0  0
    1.7436   19.0451   18.5358 C   0  0  0  0  0  0  0  0  0  0  0  0
    0.6110   18.8367   19.5438 C   0  0  0  0  0  0  0  0  0  0  0  0
   -0.6666   18.5946   18.8757 N   0  0  0  0  0  0  0  0  0  0  0  0
   -1.1464   17.3624   18.6066 C   0  0  0  0  0  0  0  0  0  0  0  0
   -1.5857   17.0482   17.3854 N   0  0  0  0  0  0  0  0  0  0  0  0
   -1.3874   16.4995   19.6108 N   0  0  0  0  0  4  0  0  0  0  0  0
    4.3818   18.2396   17.6532 C   0  0  0  0  0  0  0  0  0  0  0  0
    5.2577   17.3719   17.5049 O   0  0  0  0  0  0  0  0  0  0  0  0
    3.6481   18.6330   16.6919 N   0  0  0  0  0  0  0  0  0  0  0  0
    3.4791   20.0434   16.2506 C   0  0  1  0  0  0  0  0  0  0  0  0
    2.0990   20.5641   16.5866 C   0  0  0  0  0  0  0  0  0  0  0  0
    4.6275   20.9338   16.7230 C   0  0  0  0  0  0  0  0  0  0  0  0
    5.7029   20.9405   16.1247 O   0  0  0  0  0  0  0  0  0  0  0  0
    4.4754   21.5079   17.9266 N   0  0  0  0  0  0  0  0  0  0  0  0
    3.7475   20.8150   19.0028 C   0  0  2  0  0  0  0  0  0  0  0  0
    2.8021   21.7777   19.7468 C   0  0  0  0  0  0  0  0  0  0  0  0
    1.4703   21.0527   20.1778 C   0  0  0  0  0  0  0  0  0  0  0  0
    0.3194   21.3697   19.2297 C   0  0  0  0  0  0  0  0  0  0  0  0
   -0.3164   20.1587   18.7698 N   0  0  0  0  0  0  0  0  0  0  0  0
   -1.2533   19.5017   19.5074 C   0  0  0  0  0  0  0  0  0  0  0  0
   -1.9556   18.5057   19.0104 N   0  0  0  0  0  0  0  0  0  0  0  0
   -1.4061   19.8106   20.8169 N   0  0  0  0  0  4  0  0  0  0  0  0
    4.6945   20.0633   19.9201 C   0  0  0  0  0  0  0  0  0  0  0  0
    4.6443   20.2351   21.1580 O   0  0  0  0  0  0  0  0  0  0  0  0
    5.4702   19.1462   19.3500 N   0  0  0  0  0  0  0  0  0  0  0  0
    5.1935   17.6914   19.1756 C   0  0  2  0  0  0  0  0  0  0  0  0
    3.8035   17.4804   18.5176 C   0  0  0  0  0  0  0  0  0  0  0  0
    3.4100   16.0372   18.2643 C   0  0  0  0  0  0  0  0  0  0  0  0
    2.9899   15.1891   19.4421 C   0  0  0  0  0  0  0  0  0  0  0  0
    3.9425   14.5746   20.0981 N   0  0  0  0  0  0  0  0  0  0  0  0
    1.8071   14.8720   19.6488 O   0  0  0  0  0  0  0  0  0  0  0  0
    4.7047   17.1623   20.5721 C   0  0  0  0  0  0  0  0  0  0  0  0
    5.5982   16.5835   21.2228 O   0  0  0  0  0  0  0  0  0  0  0  0
    4.0444   16.4079   19.5967 N   0  0  0  0  0  0  0  0  0  0  0  0
    2.8530   16.9029   19.0702 C   0  0  1  0  0  0  0  0  0  0  0  0
    2.6680   18.4104   19.1461 C   0  0  0  0  0  0  0  0  0  0  0  0
    3.2852   19.2032   20.2743 C   0  0  1  0  0  0  0  0  0  0  0  0
    2.7911   20.6558   20.2981 C   0  0  0  0  0  0  0  0  0  0  0  0
    3.1600   18.5655   21.6391 C   0  0  0  0  0  0  0  0  0  0  0  0
    2.3631   16.2506   17.7640 C   0  0  0  0  0  0  0  0  0  0  0  0
    2.1215   16.6520   16.5586 O   0  0  0  0  0  0  0  0  0  0  0  0
    1.3977   15.2993   17.8444 N   0  0  0  0  0  0  0  0  0  0  0  0
    0.7174   14.8370   19.0836 C   0  0  0  0  0  0  0  0  0  0  0  0
    0.5660   16.0853   19.8296 C   0  0  0  0  0  0  0  0  0  0  0  0
    0.5706   17.2488   18.9294 C   0  0  0  0  0  0  0  0  0  0  0  0
    1.1693   16.7359   17.6001 C   0  0  1  0  0  0  0  0  0  0  0  0
    2.3452   17.6564   17.1827 C   0  0  0  0  0  0  0  0  0  0  0  0
    2.6996   18.5806   17.9093 O   0  0  0  0  0  0  0  0  0  0  0  0
    3.1629   17.2948   16.1490 N   0  0  0  0  0  0  0  0  0  0  0  0
    3.5560   18.3399   15.1294 C   0  0  2  0  0  0  0  0  0  0  0  0
    4.4535   19.3474   15.8000 C   0  0  0  0  0  0  0  0  0  0  0  0
    2.2520   19.0185   14.6717 C   0  0  0  0  0  0  0  0  0  0  0  0
    2.2997   20.0305   14.0076 O   0  0  0  0  0  0  0  0  0  0  0  0
    1.1537   18.7438   15.3982 N   0  0  0  0  0  0  0  0  0  0  0  0
    0.5820   19.5189   16.4939 C   0  0  1  0  0  0  0  0  0  0  0  0
   -0.6163   18.7471   17.1032 C   0  0  0  0  0  0  0  0  0  0  0  0
   -0.2649   17.3734   17.1623 O   0  0  0  0  0  0  0  0  0  0  0  0
    1.5690   19.8542   17.6112 C   0  0  0  0  0  0  0  0  0  0  0  0
    2.7907   19.7666   17.4213 O   0  0  0  0  0  0  0  0  0  0  0  0
    1.0363   20.0070   18.8568 N   0  0  0  0  0  0  0  0  0  0  0  0
    1.6591   19.4003   20.0399 C   0  0  1  0  0  0  0  0  0  0  0  0
    0.9543   19.8806   21.3413 C   0  0  0  0  0  0  0  0  0  0  0  0
    1.8620   20.3703   22.4490 C   0  0  0  0  0  0  0  0  0  0  0  0
    2.8791   19.6024   22.9352 C   0  0  0  0  0  0  0  0  0  0  0  0
    4.0318   20.1887   23.4750 C   0  0  0  0  0  0  0  0  0  0  0  0
    4.0872   21.5532   23.6496 C   0  0  0  0  0  0  0  0  0  0  0  0
    3.0057   22.3300   23.2727 C   0  0  0  0  0  0  0  0  0  0  0  0
    1.8567   21.7405   22.7237 C   0  0  0  0  0  0  0  0  0  0  0  0
    1.8640   17.9166   19.9594 C   0  0  0  0  0  0  0  0  0  0  0  0
    1.5931   17.0534   20.8316 O   0  0  0  0  0  0  0  0  0  0  0  0
    3.6123   17.9778   20.6045 N   0  0  0  0  0  0  0  0  0  0  0  0
    3.4730   16.7345   21.3858 C   0  0  1  0  0  0  0  0  0  0  0  0
    2.5293   16.9761   22.6577 C   0  0  0  0  0  0  0  0  0  0  0  0
    1.1433   17.3910   22.1194 C   0  0  0  0  0  0  0  0  0  0  0  0
    1.0926   18.2372   20.9257 C   0  0  0  0  0  0  0  0  0  0  0  0
   -0.0453   18.9564   21.0337 N   0  0  0  0  0  0  0  0  0  0  0  0
   -0.4572   18.9746   22.3587 C   0  0  0  0  0  0  0  0  0  0  0  0
   -1.4282   19.7533   22.9881 C   0  0  0  0  0  0  0  0  0  0  0  0
   -1.7909   19.3755   24.2849 C   0  0  0  0  0  0  0  0  0  0  0  0
   -1.2885   18.2397   24.8853 C   0  0  0  0  0  0  0  0  0  0  0  0
   -0.3995   17.3902   24.1862 C   0  0  0  0  0  0  0  0  0  0  0  0
    0.1000   17.8156   22.9428 C   0  0  0  0  0  0  0  0  0  0  0  0
    2.4860   15.8696   20.3849 C   0  0  0  0  0  0  0  0  0  0  0  0
    2.0428   14.8330   20.8618 O   0  0  0  0  0  0  0  0  0  0  0  0
    1.7845   16.7264   19.6400 N   0  0  0  0  0  0  0  0  0  0  0  0
    2.1792   17.3075   18.3859 C   0  0  2  0  0  0  0  0  0  0  0  0
    1.0276   17.9778   17.6397 C   0  0  0  0  0  0  0  0  0  0  0  0
    0.3911   19.1289   18.3032 C   0  0  0  0  0  0  0  0  0  0  0  0
   -0.6241   19.9616   17.4612 C   0  0  0  0  0  0  0  0  0  0  0  0
   -0.6463   19.7714   16.2170 O   0  0  0  0  0  0  0  0  0  0  0  0
   -1.5450   20.6318   18.0526 O   0  0  0  0  0  1  0  0  0  0  0  0
    3.3347   16.9285   17.4831 C   0  0  0  0  0  0  0  0  0  0  0  0
    4.1152   15.1965   18.7411 O   0  0  0  0  0  0  0  0  0  0  0  0
    3.1803   15.8289   16.7535 N   0  0  0  0  0  0  0  0  0  0  0  0
    2.3106   15.8549   15.5835 C   0  0  1  0  0  0  0  0  0  0  0  0
    2.9893   16.2206   14.3466 C   0  0  0  0  0  0  0  0  0  0  0  0
    2.0857   16.7169   13.2425 C   0  0  0  0  0  0  0  0  0  0  0  0
    0.6136   16.3601   13.3480 C   0  0  0  0  0  0  0  0  0  0  0  0
    0.1263   16.1845   14.4773 O   0  0  0  0  0  0  0  0  0  0  0  0
   -0.0758   16.3468   12.2886 O   0  0  0  0  0  1  0  0  0  0  0  0
    1.5110   14.5966   15.4462 C   0  0  0  0  0  0  0  0  0  0  0  0
    2.1424   13.4886   15.2689 O   0  0  0  0  0  0  0  0  0  0  0  0
    0.1548   14.5857   15.5601 N   0  0  0  0  0  0  0  0  0  0  0  0
   -0.7995   14.5898   14.4231 C   0  0  0  0  0  0  0  0  0  0  0  0
   -1.5492   13.2767   14.6233 C   0  0  0  0  0  0  0  0  0  0  0  0
   -1.7120   13.1961   16.0588 C   0  0  0  0  0  0  0  0  0  0  0  0
   -0.4719   13.8936   16.6943 C   0  0  2  0  0  0  0  0  0  0  0  0
   -0.9186   14.8634   17.7772 C   0  0  0  0  0  0  0  0  0  0  0  0
   -0.5483   16.1612   17.6277 N   0  0  0  0  0  0  0  0  0  0  0  0
   -1.7021   14.4901   18.6763 O   0  0  0  0  0  0  0  0  0  0  0  0
 18 20  2  0
 18 19  1  0
 18 17  1  0
 16 17  1  6
 16 14  1  0
 16 21  1  0
 14 15  2  0
 14 13  1  0
 21 22  1  1
 21 23  1  0
 13  9  1  0
 13 12  1  0
  9  7  1  1
  9 10  1  0
  7  8  2  0
  7  6  1  0
 10 11  1  0
 11 12  1  0
  6  5  1  0
  5 24  1  0
  5  4  1  6
 24 25  2  0
 24 26  1  0
  4  3  1  0
  3  2  1  0
  2  1  1  0
 26 27  1  0
 27 35  1  0
 27 28  1  6
 35 36  2  0
 35 37  1  0
 28 29  1  0
 29 30  1  0
 30 31  1  0
 31 32  1  0
 32 34  2  0
 32 33  1  0
 37 38  1  0
 38 40  1  0
 38 39  1  1
 40 41  2  0
 40 42  1  0
 42 43  1  0
 43 51  1  0
 43 44  1  6
 51 52  2  0
 51 53  1  0
 44 45  1  0
 45 46  1  0
 46 47  1  0
 47 48  1  0
 48 50  2  0
 48 49  1  0
 53 54  1  0
 54 60  1  0
 54 55  1  1
 60 61  2  0
 60 62  1  0
 55 56  1  0
 56 57  1  0
 57 59  2  0
 57 58  1  0
 62 63  1  0
 63 68  1  0
 63 64  1  6
 68 69  2  0
 68 70  1  0
 64 65  1  0
 65 66  1  1
 65 67  1  0
 70 74  1  0
 70 71  1  0
 74 75  1  1
 74 73  1  0
 75 76  2  0
 75 77  1  0
 73 72  1  0
 72 71  1  0
 77 78  1  0
 78 80  1  0
 78 79  1  6
 80 81  2  0
 80 82  1  0
 82 83  1  0
 83 86  1  0
 83 84  1  1
 86 87  2  0
 86 88  1  0
 84 85  1  0
 88 89  1  0
 89 97  1  0
 89 90  1  1
 97 98  2  0
 97 99  1  0
 90 91  1  0
 91 92  4  0
 91 96  4  0
 92 93  4  0
 96 95  4  0
 93 94  4  0
 95 94  4  0
 99100  1  0
100111  1  0
100101  1  1
111112  2  0
111113  1  0
101102  1  0
102103  4  0
102110  4  0
103104  4  0
110105  4  0
110109  4  0
104105  4  0
105106  4  0
109108  4  0
106107  4  0
108107  4  0
113114  1  0
114120  1  0
114115  1  1
120121  2  0
120122  1  0
115116  1  0
116117  1  0
117119  1  0
117118  2  0
122123  1  0
123129  1  0
123124  1  6
129130  2  0
129131  1  0
124125  1  0
125126  1  0
126128  1  0
126127  2  0
131135  1  0
131132  1  0
135136  1  6
135134  1  0
136138  2  0
136137  1  0
134133  1  0
133132  1  0
M  CHG  4  34   1  50   1 119  -1 128  -1
M  END
$$$$
