
     RDKit          3D

 29 32  0  0  0  0  0  0  0  0999 V2000
    6.3590   23.2910   29.7130 O   0  0  0  0  0  0  0  0  0  0  0  0
    6.6140   22.6940   28.7260 C   0  0  0  0  0  0  0  0  0  0  0  0
    7.4570   21.5380   28.8140 N   0  0  0  0  0  0  0  0  0  0  0  0
    7.9400   21.1360   30.1210 C   0  0  0  0  0  0  0  0  0  0  0  0
    9.1890   21.8630   30.5690 C   0  0  0  0  0  0  0  0  0  0  0  0
    9.7940   21.4450   31.7390 C   0  0  0  0  0  0  0  0  0  0  0  0
   10.9360   22.0860   32.1750 C   0  0  0  0  0  0  0  0  0  0  0  0
   11.4550   23.1430   31.4510 C   0  0  0  0  0  0  0  0  0  0  0  0
   12.6170   23.8040   31.8570 O   0  0  0  0  0  0  0  0  0  0  0  0
   12.7920   23.8630   33.2490 C   0  0  0  0  0  0  0  0  0  0  0  0
   13.9620   23.3720   33.7850 C   0  0  0  0  0  0  0  0  0  0  0  0
   14.1730   23.4280   35.1480 C   0  0  0  0  0  0  0  0  0  0  0  0
   13.2100   23.9790   35.9750 C   0  0  0  0  0  0  0  0  0  0  0  0
   12.0340   24.4760   35.4400 C   0  0  0  0  0  0  0  0  0  0  0  0
   11.8270   24.4230   34.0700 C   0  0  0  0  0  0  0  0  0  0  0  0
   10.8440   23.5520   30.2790 C   0  0  0  0  0  0  0  0  0  0  0  0
    9.7000   22.9110   29.8320 C   0  0  0  0  0  0  0  0  0  0  0  0
    6.0230   23.1190   27.3870 C   0  0  0  0  0  0  0  0  0  0  0  0
    5.2910   24.2850   27.2600 C   0  0  0  0  0  0  0  0  0  0  0  0
    4.7690   24.6050   26.0930 N   0  0  0  0  0  0  0  0  0  0  0  0
    4.9070   23.8240   25.0500 C   0  0  0  0  0  0  0  0  0  0  0  0
    4.3040   24.2260   23.7960 N   0  0  0  0  0  0  0  0  0  0  0  0
    4.2740   23.4920   22.7100 C   0  0  0  0  0  0  0  0  0  0  0  0
    3.6180   24.2250   21.7560 C   0  0  0  0  0  0  0  0  0  0  0  0
    3.2540   25.4430   22.3240 C   0  0  0  0  0  0  0  0  0  0  0  0
    3.6800   25.4350   23.5900 N   0  0  0  0  0  0  0  0  0  0  0  0
    5.5830   22.6900   25.1110 N   0  0  0  0  0  0  0  0  0  0  0  0
    6.1300   22.3150   26.2580 C   0  0  0  0  0  0  0  0  0  0  0  0
    6.8440   21.1240   26.3330 O   0  0  0  0  0  0  0  0  0  0  0  0
  2 18  1  0
  3  2  1  0
  2  1  2  0
 18 19  2  0
 18 28  1  0
 19 20  1  0
 20 21  2  0
 21 22  1  0
 27 21  1  0
 24 25  1  0
 25 26  2  0
 23 24  2  0
 22 23  1  0
 28 27  1  0
 28 29  2  0
  5  4  1  0
  4  3  1  0
  6  5  2  0
 17  5  1  0
  7  6  1  0
  8  7  2  0
 16 17  2  0
  8 16  1  0
  9  8  1  0
 10 11  2  0
 10 15  1  0
 10  9  1  0
 11 12  1  0
 12 13  2  0
 13 14  1  0
 14 15  2  0
 22 26  1  0
M  END
$$$$
