
     RDKit          3D

 32 35  0  0  0  0  0  0  0  0999 V2000
   26.6780  -11.1420    9.0800 C   0  0  0  0  0  0  0  0  0  0  0  0
   27.6400  -12.5140    9.7520 S   0  0  1  0  0  0  0  0  0  0  0  0
   27.0690  -12.9410   11.0240 O   0  0  0  0  0  0  0  0  0  0  0  0
   27.9040  -13.4820    8.7160 O   0  0  0  0  0  0  0  0  0  0  0  0
   29.1740  -11.7440   10.1500 C   0  0  0  0  0  0  0  0  0  0  0  0
   30.1390  -11.6180    9.1400 C   0  0  0  0  0  0  0  0  0  0  0  0
   31.3270  -10.9550    9.4230 C   0  0  0  0  0  0  0  0  0  0  0  0
   31.5880  -10.4790   10.7210 C   0  0  0  0  0  0  0  0  0  0  0  0
   32.7840   -9.9340   11.0160 N   0  0  0  0  0  0  0  0  0  0  0  0
   33.8620   -9.8110   10.0460 C   0  0  1  0  0  0  0  0  0  0  0  0
   33.5890   -8.6600    9.0590 C   0  0  0  0  0  0  0  0  0  0  0  0
   33.1070   -7.4120    9.4950 C   0  0  0  0  0  0  0  0  0  0  0  0
   32.9240   -6.3460    8.5750 C   0  0  0  0  0  0  0  0  0  0  0  0
   33.2530   -6.5300    7.2210 C   0  0  0  0  0  0  0  0  0  0  0  0
   33.7900   -7.7680    6.7970 C   0  0  0  0  0  0  0  0  0  0  0  0
   34.2170   -8.0640    5.1140 Cl  0  0  0  0  0  0  0  0  0  0  0  0
   33.9430   -8.8250    7.7100 C   0  0  0  0  0  0  0  0  0  0  0  0
   35.2020   -9.5050   10.7180 C   0  0  0  0  0  0  0  0  0  0  0  0
   36.4380   -9.7880   10.1130 C   0  0  0  0  0  0  0  0  0  0  0  0
   37.6150   -9.4380   10.7990 C   0  0  0  0  0  0  0  0  0  0  0  0
   37.5470   -8.8450   12.0710 C   0  0  0  0  0  0  0  0  0  0  0  0
   36.2870   -8.5900   12.6320 C   0  0  0  0  0  0  0  0  0  0  0  0
   35.1690   -8.9240   11.9420 N   0  0  0  0  0  0  0  0  0  0  0  0
   30.6290  -10.6120   11.7400 C   0  0  0  0  0  0  0  0  0  0  0  0
   30.8990  -10.0480   12.9650 N   0  0  0  0  0  0  0  0  0  0  0  0
   30.5390  -10.4270   14.2270 C   0  0  0  0  0  0  0  0  0  0  0  0
   30.9220   -9.6150   15.2530 N   0  0  0  0  0  0  0  0  0  0  0  0
   30.6100   -9.8940   16.5530 C   0  0  0  0  0  0  0  0  0  0  0  0
   29.8560  -11.0470   16.8500 C   0  0  0  0  0  0  0  0  0  0  0  0
   29.4620  -11.8720   15.7730 C   0  0  0  0  0  0  0  0  0  0  0  0
   29.8030  -11.5410   14.4960 N   0  0  0  0  0  0  0  0  0  0  0  0
   29.4020  -11.2360   11.4320 C   0  0  0  0  0  0  0  0  0  0  0  0
  8  7  2  0
 24  8  1  0
  8  9  1  0
  7  6  1  0
  5  6  2  0
  2  1  1  6
 10 18  1  0
 10 11  1  0
 10  9  1  1
 18 19  1  0
 18 23  2  0
 22 21  2  0
 23 22  1  0
 20 21  1  0
 19 20  2  0
 11 12  2  0
 11 17  1  0
 12 13  1  0
 13 14  2  0
 15 14  1  0
 17 15  2  0
 15 16  1  0
 25 26  1  0
 26 27  2  0
 26 31  1  0
 28 29  2  0
 27 28  1  0
 29 30  1  0
 32  5  1  0
  5  2  1  0
 24 32  2  0
 24 25  1  0
  2  3  2  0
  2  4  2  0
 30 31  2  0
M  END
$$$$
