
     RDKit          3D

 32 35  0  0  0  0  0  0  0  0999 V2000
   40.6410   -8.1070   10.8457 C   0  0  0  0  0  0  0  0  0  0  0  0
   39.3592   -7.4667    9.7252 S   0  0  2  0  0  0  0  0  0  0  0  0
   38.2431   -8.3637    9.7463 O   0  0  0  0  0  0  0  0  0  0  0  0
   40.0232   -7.0003    8.4928 O   0  0  0  0  0  0  0  0  0  0  0  0
   38.8367   -5.9630   10.5055 C   0  0  0  0  0  0  0  0  0  0  0  0
   37.9145   -5.1716    9.8169 C   0  0  0  0  0  0  0  0  0  0  0  0
   36.6958   -4.9207   10.3817 C   0  0  0  0  0  0  0  0  0  0  0  0
   36.3311   -5.5403   11.6221 C   0  0  0  0  0  0  0  0  0  0  0  0
   35.5875   -6.6391   11.5926 N   0  0  0  0  0  0  0  0  0  0  0  0
   34.3911   -6.8377   12.3296 C   0  0  1  0  0  0  0  0  0  0  0  0
   33.2919   -7.5240   11.5238 C   0  0  0  0  0  0  0  0  0  0  0  0
   32.7598   -8.7692   11.9427 C   0  0  0  0  0  0  0  0  0  0  0  0
   32.0909   -9.5933   11.0220 C   0  0  0  0  0  0  0  0  0  0  0  0
   31.7987   -9.1804    9.7016 C   0  0  0  0  0  0  0  0  0  0  0  0
   32.4190   -7.9516    9.2924 C   0  0  0  0  0  0  0  0  0  0  0  0
   32.6081   -7.5200    7.5728 Cl  0  0  0  0  0  0  0  0  0  0  0  0
   33.0808   -7.1244   10.1974 C   0  0  0  0  0  0  0  0  0  0  0  0
   34.6502   -7.7251   13.5955 C   0  0  0  0  0  0  0  0  0  0  0  0
   35.4098   -8.8688   13.4840 C   0  0  0  0  0  0  0  0  0  0  0  0
   35.0930   -9.9279   14.4157 C   0  0  0  0  0  0  0  0  0  0  0  0
   34.1657   -9.7031   15.4717 C   0  0  0  0  0  0  0  0  0  0  0  0
   33.5655   -8.4683   15.5474 C   0  0  0  0  0  0  0  0  0  0  0  0
   33.8553   -7.4743   14.6536 N   0  0  0  0  0  0  0  0  0  0  0  0
   37.4508   -5.6583   12.5528 C   0  0  0  0  0  0  0  0  0  0  0  0
   37.4016   -4.8083   13.6319 N   0  0  0  0  0  0  0  0  0  0  0  0
   37.8250   -5.0219   14.9231 C   0  0  0  0  0  0  0  0  0  0  0  0
   36.8768   -5.6290   15.7694 N   0  0  0  0  0  0  0  0  0  0  0  0
   36.8013   -5.2677   17.0701 C   0  0  0  0  0  0  0  0  0  0  0  0
   37.7744   -4.3997   17.6576 C   0  0  0  0  0  0  0  0  0  0  0  0
   38.7333   -3.8655   16.8318 C   0  0  0  0  0  0  0  0  0  0  0  0
   38.8096   -4.2707   15.5008 N   0  0  0  0  0  0  0  0  0  0  0  0
   38.7603   -5.9466   11.9435 C   0  0  0  0  0  0  0  0  0  0  0  0
  8  7  4  0
 24  8  4  0
  8  9  1  0
  7  6  4  0
  5  6  4  0
  2  1  1  6
 10 18  1  0
 10 11  1  0
 10  9  1  6
 18 19  4  0
 18 23  4  0
 22 21  4  0
 23 22  4  0
 20 21  4  0
 19 20  4  0
 11 12  4  0
 11 17  4  0
 12 13  4  0
 13 14  4  0
 15 14  4  0
 17 15  4  0
 15 16  1  0
 25 26  1  0
 26 27  4  0
 26 31  4  0
 28 29  4  0
 27 28  4  0
 29 30  4  0
 32  5  4  0
  5  2  1  0
 24 32  4  0
 24 25  1  0
  2  3  2  0
  2  4  2  0
 30 31  4  0
M  END
$$$$
