
     RDKit          3D

 45 50  0  0  0  0  0  0  0  0999 V2000
   37.6793   -0.3256   18.7172 C   0  0  0  0  0  0  0  0  0  0  0  0
   37.6142   -0.7617   17.3065 O   0  0  0  0  0  0  0  0  0  0  0  0
   37.0604   -1.9650   16.9567 C   0  0  0  0  0  0  0  0  0  0  0  0
   36.9381   -2.3462   15.6756 N   0  0  0  0  0  0  0  0  0  0  0  0
   36.4645   -3.6085   15.3121 C   0  0  0  0  0  0  0  0  0  0  0  0
   37.2819   -4.4187   14.4889 N   0  0  0  0  0  0  0  0  0  0  0  0
   36.8053   -5.0152   13.3685 C   0  0  0  0  0  0  0  0  0  0  0  0
   37.5057   -6.0500   12.7479 C   0  0  0  0  0  0  0  0  0  0  0  0
   37.5998   -6.0446   11.3372 C   0  0  0  0  0  0  0  0  0  0  0  0
   37.4820   -7.5908   10.4988 S   0  0  2  0  0  0  0  0  0  0  0  0
   37.9627   -7.1513    8.8404 C   0  0  0  0  0  0  0  0  0  0  0  0
   36.0904   -7.9760   10.4315 O   0  0  0  0  0  0  0  0  0  0  0  0
   38.4259   -8.4847   11.0993 O   0  0  0  0  0  0  0  0  0  0  0  0
   37.2264   -4.8773   10.6391 C   0  0  0  0  0  0  0  0  0  0  0  0
   36.4300   -3.8865   11.2136 C   0  0  0  0  0  0  0  0  0  0  0  0
   35.9091   -4.2121   12.5386 C   0  0  0  0  0  0  0  0  0  0  0  0
   34.6015   -4.4824   12.6890 N   0  0  0  0  0  0  0  0  0  0  0  0
   34.1364   -5.9062   12.5211 C   0  0  2  0  0  0  0  0  0  0  0  0
   34.3734   -6.7213   13.8389 C   0  0  0  0  0  0  0  0  0  0  0  0
   35.2844   -6.4116   14.8217 C   0  0  0  0  0  0  0  0  0  0  0  0
   35.2035   -7.0166   16.1473 C   0  0  0  0  0  0  0  0  0  0  0  0
   34.1775   -7.8617   16.5229 C   0  0  0  0  0  0  0  0  0  0  0  0
   33.2801   -8.1870   15.4749 C   0  0  0  0  0  0  0  0  0  0  0  0
   33.4668   -7.7587   14.1747 C   0  0  0  0  0  0  0  0  0  0  0  0
   32.9804   -8.6875   13.2586 O   0  0  0  0  0  0  0  0  0  0  0  0
   32.3506   -9.6568   14.1075 C   0  0  1  0  0  0  0  0  0  0  0  0
   31.1380   -9.9519   13.6989 F   0  0  0  0  0  0  0  0  0  0  0  0
   33.0386  -10.8057   14.0105 F   0  0  0  0  0  0  0  0  0  0  0  0
   32.3802   -9.2609   15.5261 O   0  0  0  0  0  0  0  0  0  0  0  0
   35.0055   -6.5871   11.4708 C   0  0  0  0  0  0  0  0  0  0  0  0
   36.1573   -7.1486   11.8423 N   0  0  0  0  0  0  0  0  0  0  0  0
   36.4285   -8.4515   11.6294 C   0  0  0  0  0  0  0  0  0  0  0  0
   35.6436   -9.1924   10.6919 C   0  0  0  0  0  0  0  0  0  0  0  0
   34.4896   -8.5995   10.1223 C   0  0  0  0  0  0  0  0  0  0  0  0
   34.3304   -7.2224   10.3374 C   0  0  0  0  0  0  0  0  0  0  0  0
   33.8615   -6.2130    8.9734 Cl  0  0  0  0  0  0  0  0  0  0  0  0
   35.7649   -4.3008   16.2870 N   0  0  0  0  0  0  0  0  0  0  0  0
   36.0217   -4.0547   17.6386 C   0  0  0  0  0  0  0  0  0  0  0  0
   36.5505   -5.0904   18.3751 N   0  0  0  0  0  0  0  0  0  0  0  0
   37.9379   -5.0783   18.9107 C   0  0  0  0  0  0  0  0  0  0  0  0
   38.8776   -5.4926   17.7956 C   0  0  0  0  0  0  0  0  0  0  0  0
   38.4838   -6.7351   17.0688 N   0  0  0  0  0  0  0  0  0  0  0  0
   37.0324   -7.0138   16.8271 C   0  0  0  0  0  0  0  0  0  0  0  0
   36.1184   -6.5139   17.9882 C   0  0  0  0  0  0  0  0  0  0  0  0
   36.4291   -2.7685   17.8983 N   0  0  0  0  0  0  0  0  0  0  0  0
 16 15  4  0
  7 16  4  0
 16 17  1  0
 15 14  4  0
  9 14  4  0
 40 41  1  0
 39 40  1  0
 41 42  1  0
 44 43  1  0
 43 42  1  0
 39 44  1  0
 10 11  1  6
 18 19  1  0
 18 30  1  0
 18 17  1  6
 19 24  4  0
 19 20  4  0
 24 23  4  0
 24 25  1  0
 23 22  4  0
 23 29  1  0
 21 22  4  0
 20 21  4  0
 30 35  4  0
 30 31  4  0
 35 34  4  0
 35 36  1  0
 34 33  4  0
 32 33  4  0
 31 32  4  0
 25 26  1  0
 26 29  1  0
 26 27  1  6
 26 28  1  0
  8  9  4  0
  9 10  1  0
  7  8  4  0
  6  7  1  0
  5  6  1  0
 10 12  2  0
 10 13  2  0
 37  5  4  0
  5  4  4  0
 38 37  4  0
 38 45  4  0
 38 39  1  0
 45  3  4  0
  3  4  4  0
  3  2  1  0
  2  1  1  0
M  CHG  1  42   1
M  END
$$$$
