
     RDKit          3D

 22 23  0  0  0  0  0  0  0  0999 V2000
   -5.9770   -9.9570   50.4960 N   0  0  0  0  0  0  0  0  0  0  0  0
   -7.0520   -9.7320   49.5350 C   0  0  0  0  0  0  0  0  0  0  0  0
   -7.7620  -10.6350   49.1930 O   0  0  0  0  0  0  0  0  0  0  0  0
   -7.3300   -8.3520   48.9100 C   0  0  1  0  0  0  0  0  0  0  0  0
   -6.3720   -7.2070   49.2470 C   0  0  0  0  0  0  0  0  0  0  0  0
   -6.2720   -6.1920   48.2570 N   0  0  0  0  0  0  0  0  0  0  0  0
   -5.2200   -5.1410   48.3010 C   0  0  0  0  0  0  0  0  0  0  0  0
   -5.1400   -4.2840   47.4340 O   0  0  0  0  0  0  0  0  0  0  0  0
   -4.2660   -5.1160   49.5070 C   0  0  0  0  0  0  0  0  0  0  0  0
   -5.2140   -4.1450   50.7540 S   0  0  0  0  0  0  0  0  0  0  0  0
   -5.5510   -2.4660   50.0960 C   0  0  0  0  0  0  0  0  0  0  0  0
   -5.0330   -1.3710   51.0420 C   0  0  0  0  0  0  0  0  0  0  0  0
   -6.0270   -0.8540   52.0930 C   0  0  0  0  0  0  0  0  0  0  0  0
   -5.7380    0.1610   52.7810 O   0  0  0  0  0  0  0  0  0  0  0  0
   -7.1360   -1.4220   52.2930 O   0  0  0  0  0  0  0  0  0  0  0  0
   -7.1940   -6.1720   47.1170 C   0  0  0  0  0  0  0  0  0  0  0  0
   -7.4840   -4.9680   46.4060 C   0  0  0  0  0  0  0  0  0  0  0  0
   -8.3740   -4.9600   45.3380 C   0  0  0  0  0  0  0  0  0  0  0  0
   -8.9850   -6.1710   44.9530 C   0  0  0  0  0  0  0  0  0  0  0  0
   -8.7120   -7.3710   45.6300 C   0  0  0  0  0  0  0  0  0  0  0  0
   -7.8130   -7.3800   46.7210 C   0  0  0  0  0  0  0  0  0  0  0  0
   -7.4890   -8.6120   47.4870 O   0  0  0  0  0  0  0  0  0  0  0  0
 12 13  1  0
 13 15  1  0
 13 14  2  0
 18 19  2  0
 17 18  1  0
 20 19  1  0
 21 20  2  0
 16 21  1  0
 21 22  1  0
 16 17  2  0
  6 16  1  0
  6  5  1  0
  7  6  1  0
  5  4  1  0
  4 22  1  0
  4  2  1  1
  2  3  2  0
  2  1  1  0
  7  8  2  0
  9  7  1  0
 10  9  1  0
 11 10  1  0
 11 12  1  0
M  END
$$$$
