
     RDKit          3D

 22 23  0  0  0  0  0  0  0  0999 V2000
   -1.5737    0.8094   49.8039 N   0  0  0  0  0  0  0  0  0  0  0  0
   -1.6266   -0.6225   49.4294 C   0  0  0  0  0  0  0  0  0  0  0  0
   -0.6158   -1.1768   49.1186 O   0  0  0  0  0  0  0  0  0  0  0  0
   -2.7498   -1.5549   49.9231 C   0  0  2  0  0  0  0  0  0  0  0  0
   -4.0494   -1.6690   49.0901 C   0  0  0  0  0  0  0  0  0  0  0  0
   -5.1876   -0.9884   49.7070 N   0  0  0  0  0  0  0  0  0  0  0  0
   -6.5150   -1.5711   49.5979 C   0  0  0  0  0  0  0  0  0  0  0  0
   -6.9573   -2.3099   50.5339 O   0  0  0  0  0  0  0  0  0  0  0  0
   -7.2214   -1.7078   48.2329 C   0  0  0  0  0  0  0  0  0  0  0  0
   -5.7865   -1.9565   47.1098 S   0  0  0  0  0  0  0  0  0  0  0  0
   -6.3554   -2.2364   45.4157 C   0  0  0  0  0  0  0  0  0  0  0  0
   -7.8940   -2.5163   45.3786 C   0  0  0  0  0  0  0  0  0  0  0  0
   -8.6541   -1.6015   44.4360 C   0  0  0  0  0  0  0  0  0  0  0  0
   -8.1861   -0.5719   43.9359 O   0  0  0  0  0  0  0  0  0  0  0  0
   -9.9308   -1.7740   44.2595 O   0  0  0  0  0  0  0  0  0  0  0  0
   -4.9435    0.0187   50.7916 C   0  0  0  0  0  0  0  0  0  0  0  0
   -5.9301    1.0018   51.0851 C   0  0  0  0  0  0  0  0  0  0  0  0
   -5.7502    1.8715   52.1105 C   0  0  0  0  0  0  0  0  0  0  0  0
   -4.6619    1.7327   52.9994 C   0  0  0  0  0  0  0  0  0  0  0  0
   -3.6850    0.6865   52.7472 C   0  0  0  0  0  0  0  0  0  0  0  0
   -3.8209   -0.1310   51.6005 C   0  0  0  0  0  0  0  0  0  0  0  0
   -2.9033   -1.3015   51.3255 O   0  0  0  0  0  0  0  0  0  0  0  0
 12 13  1  0
 13 15  1  0
 13 14  2  0
 18 19  4  0
 17 18  4  0
 20 19  4  0
 21 20  4  0
 16 21  4  0
 21 22  1  0
 16 17  4  0
  6 16  1  0
  6  5  1  0
  7  6  1  0
  5  4  1  0
  4 22  1  0
  4  2  1  1
  2  3  2  0
  2  1  1  0
  7  8  2  0
  9  7  1  0
 10  9  1  0
 11 10  1  0
 11 12  1  0
M  END
$$$$
