
     RDKit          3D

 16 15  0  0  0  0  0  0  0  0999 V2000
  -16.8520  -40.7910   35.3000 C   0  0  0  0  0  0  0  0  0  0  0  0
  -18.0970  -41.3930   35.4470 O   0  0  0  0  0  0  0  0  0  0  0  0
  -18.7140  -41.6180   34.2190 C   0  0  0  0  0  0  0  0  0  0  0  0
  -19.8990  -40.5770   34.0730 C   0  0  2  0  0  0  0  0  0  0  0  0
  -20.4440  -40.6700   32.8020 O   0  0  0  0  0  0  0  0  0  0  0  0
  -19.4730  -39.2800   34.3300 O   0  0  0  0  0  0  0  0  0  0  0  0
  -20.8570  -41.0250   35.1950 C   0  0  0  0  0  0  0  0  0  0  0  0
  -22.1220  -40.1410   35.3100 C   0  0  0  0  0  0  0  0  0  0  0  0
  -23.4610  -40.9200   35.2200 C   0  0  0  0  0  0  0  0  0  0  0  0
  -24.6410  -40.3310   36.0380 C   0  0  0  0  0  0  0  0  0  0  0  0
  -25.8750  -39.9250   35.1800 C   0  0  0  0  0  0  0  0  0  0  0  0
  -27.1050  -40.7190   35.4920 N   0  0  0  0  0  0  0  0  0  0  0  0
  -28.1340  -40.6730   34.4000 C   0  0  0  0  0  0  0  0  0  0  0  0
  -29.1790  -39.5410   34.6180 C   0  0  0  0  0  0  0  0  0  0  0  0
  -30.5570  -40.0420   35.1500 C   0  0  0  0  0  0  0  0  0  0  0  0
  -30.9300  -39.3930   36.4310 N   0  0  0  0  0  0  0  0  0  0  0  0
 10 11  1  0
  9 10  1  0
 11 12  1  0
 13 14  1  0
 12 13  1  0
 14 15  1  0
 15 16  1  0
  2  1  1  0
  4  3  1  0
  3  2  1  0
  7  4  1  0
  4  5  1  6
  4  6  1  0
  8  7  1  0
  8  9  1  0
M  CHG  2  12   1  16   1
M  END
$$$$
