
     RDKit          3D

 14 13  0  0  0  0  0  0  0  0999 V2000
   28.1730   42.4980   30.7890 N   0  0  0  0  0  4  0  0  0  0  0  0
   28.4660   42.2720   32.1790 C   0  0  0  0  0  0  0  0  0  0  0  0
   27.2500   41.8740   33.0280 C   0  0  0  0  0  0  0  0  0  0  0  0
   27.6440   40.7750   34.0050 C   0  0  0  0  0  0  0  0  0  0  0  0
   26.9280   40.6700   35.3110 N   0  0  0  0  0  4  0  0  0  0  0  0
   25.7240   39.8680   35.5130 C   0  0  0  0  0  0  0  0  0  0  0  0
   24.4770   40.2500   34.7260 C   0  0  0  0  0  0  0  0  0  0  0  0
   23.1650   40.1080   35.4840 C   0  0  0  0  0  0  0  0  0  0  0  0
   21.9590   40.0480   34.5500 C   0  0  0  0  0  0  0  0  0  0  0  0
   20.7110   40.7790   34.9850 C   0  0  0  0  0  0  0  0  0  0  0  0
   19.4940   40.5210   34.0190 B   0  0  1  0  0  4  0  0  0  0  0  0
   18.4880   41.5740   34.1540 O   0  0  0  0  0  3  0  0  0  0  0  0
   19.9460   40.5100   32.6140 O   0  0  0  0  0  3  0  0  0  0  0  0
   18.8640   39.2270   34.3140 O   0  0  0  0  0  3  0  0  0  0  0  0
 10 11  1  0
  9 10  1  0
 11 12  1  6
 11 14  1  0
  3  2  1  0
  2  1  1  0
  4  3  1  0
  5  4  1  0
  7  6  1  0
  6  5  1  0
  8  7  1  0
  8  9  1  0
 11 13  1  0
M  CHG  6   1   1   5   1  11  -1  12   1  13   1  14   1
M  END
$$$$
