
     RDKit          3D

 14 13  0  0  0  0  0  0  0  0999 V2000
   32.4817   38.8551   35.5761 N   0  0  0  0  0  0  0  0  0  0  0  0
   31.2344   38.8419   36.3747 C   0  0  0  0  0  0  0  0  0  0  0  0
   29.9209   38.8553   35.5326 C   0  0  0  0  0  0  0  0  0  0  0  0
   28.6057   38.8602   36.3024 C   0  0  0  0  0  0  0  0  0  0  0  0
   27.4265   38.8422   35.3842 N   0  0  0  0  0  0  0  0  0  0  0  0
   26.1552   38.4311   36.1292 C   0  0  0  0  0  0  0  0  0  0  0  0
   25.0012   39.5385   35.9835 C   0  0  0  0  0  0  0  0  0  0  0  0
   23.6358   38.9197   35.5857 C   0  0  0  0  0  0  0  0  0  0  0  0
   22.8535   39.6962   34.4762 C   0  0  0  0  0  0  0  0  0  0  0  0
   21.4366   40.2284   34.8462 C   0  0  0  0  0  0  0  0  0  0  0  0
   20.2952   39.7803   33.9016 C   0  0  0  0  0  0  0  0  0  0  0  0
   20.5005   39.8887   32.6501 O   0  0  0  0  0  0  0  0  0  0  0  0
   18.9999   39.4650   34.3381 N   0  0  0  0  0  0  0  0  0  0  0  0
   17.9833   39.2975   33.3321 O   0  0  0  0  0  0  0  0  0  0  0  0
  3  2  1  0
  2  1  1  0
  4  3  1  0
  5  4  1  0
  6  7  1  0
  6  5  1  0
  7  8  1  0
  8  9  1  0
  9 10  1  0
 10 11  1  0
 11 13  1  0
 11 12  2  0
 13 14  1  0
M  CHG  2   1   1   5   1
M  END
$$$$
