
     RDKit          3D

 21 23  0  0  0  0  0  0  0  0999 V2000
   22.0221   54.3667   92.0110 H   0  0  0  0  0  0  0  0  0  0  0  0
   22.2543   53.6059   91.0046 N   0  0  0  0  0  0  0  0  0  0  0  0
   21.9971   54.3750   89.9754 C   0  0  0  0  0  0  0  0  0  0  0  0
   21.9104   53.8419   88.7400 N   0  0  0  0  0  0  0  0  0  0  0  0
   21.7510   54.5400   87.4257 C   0  0  1  0  0  0  0  0  0  0  0  0
   23.0466   54.7494   86.6534 C   0  0  1  0  0  0  0  0  0  0  0  0
   22.9407   54.6309   85.1404 C   0  0  0  0  0  0  0  0  0  0  0  0
   23.2963   55.9938   85.8402 C   0  0  2  0  0  0  0  0  0  0  0  0
   24.6659   56.5416   85.7459 C   0  0  0  0  0  0  0  0  0  0  0  0
   24.9084   57.8152   85.6507 O   0  0  0  0  0  0  0  0  0  0  0  0
   25.6697   55.6441   86.0342 N   0  0  0  0  0  0  0  0  0  0  0  0
   27.0485   56.0884   86.1294 C   0  0  0  0  0  0  0  0  0  0  0  0
   27.9814   54.8510   86.1553 C   0  0  0  0  0  0  0  0  0  0  0  0
   29.1625   55.0243   87.0941 C   0  0  0  0  0  0  0  0  0  0  0  0
   28.7246   54.9282   88.5379 C   0  0  0  0  0  0  0  0  0  0  0  0
   20.7018   53.7114   86.6777 C   0  0  0  0  0  0  0  0  0  0  0  0
   19.4729   54.1459   87.2149 O   0  0  0  0  0  0  0  0  0  0  0  0
   19.6200   55.4521   87.7451 C   0  0  0  0  0  0  0  0  0  0  0  0
   21.0234   55.8756   87.5947 C   0  0  1  0  0  0  0  0  0  0  0  0
   21.5782   56.7956   88.6484 C   0  0  0  0  0  0  0  0  0  0  0  0
   21.6931   56.0628   90.3000 S   0  0  0  0  0  0  0  0  0  0  0  0
  9 10  2  0
  6  8  1  0
  5  6  1  0
  6  7  1  1
 17 18  1  0
 16 17  1  0
  8  9  1  1
  7  8  1  0
 14 15  1  0
  9 11  1  0
 11 12  1  0
 12 13  1  0
 13 14  1  0
  5  4  1  0
  5 19  1  0
  5 16  1  6
  4  3  1  0
  3  2  2  0
  3 21  1  0
 21 20  1  0
 19 20  1  1
 19 18  1  0
  2  1  1  0
M  END
$$$$
