
     RDKit          3D

 22 25  0  0  0  0  0  0  0  0999 V2000
   23.6889   53.9062   92.1698 H   0  0  0  0  0  0  0  0  0  0  0  0
   23.9440   53.7273   90.9887 N   0  0  0  0  0  0  0  0  0  0  0  0
   22.9377   54.3527   90.3570 C   0  0  0  0  0  0  0  0  0  0  0  0
   22.5475   53.9462   89.1358 N   0  0  0  0  0  0  0  0  0  0  0  0
   21.6591   54.6082   88.1910 C   0  0  1  0  0  0  0  0  0  0  0  0
   22.3207   54.8608   86.8785 C   0  0  2  0  0  0  0  0  0  0  0  0
   23.3743   53.9470   86.3708 C   0  0  0  0  0  0  0  0  0  0  0  0
   23.7628   55.3034   86.8376 C   0  0  1  0  0  0  0  0  0  0  0  0
   24.2505   56.3208   85.8441 C   0  0  0  0  0  0  0  0  0  0  0  0
   23.6190   56.5642   84.7968 O   0  0  0  0  0  0  0  0  0  0  0  0
   25.2270   57.1225   86.4123 N   0  0  0  0  0  0  0  0  0  0  0  0
   26.4091   57.4866   85.6385 C   0  0  0  0  0  0  0  0  0  0  0  0
   27.4438   56.4141   85.7907 C   0  0  1  0  0  0  0  0  0  0  0  0
   28.7105   56.7664   86.4818 C   0  0  0  0  0  0  0  0  0  0  0  0
   27.7264   55.9711   87.1689 C   0  0  2  0  0  0  0  0  0  0  0  0
   27.9459   54.4823   87.5084 C   0  0  0  0  0  0  0  0  0  0  0  0
   20.4788   53.6685   88.0455 C   0  0  0  0  0  0  0  0  0  0  0  0
   19.3666   54.4815   87.5904 O   0  0  0  0  0  0  0  0  0  0  0  0
   19.6917   55.8759   87.7231 C   0  0  0  0  0  0  0  0  0  0  0  0
   20.9464   55.8612   88.6864 C   0  0  1  0  0  0  0  0  0  0  0  0
   20.5909   55.7720   90.1538 C   0  0  0  0  0  0  0  0  0  0  0  0
   22.0148   55.4814   91.1949 S   0  0  0  0  0  0  0  0  0  0  0  0
  9 10  2  0
  8  9  1  6
  7  8  1  0
  6  8  1  0
 18 19  1  0
 17 18  1  0
  9 11  1  0
 15 16  1  1
 11 12  1  0
 13 12  1  6
 13 14  1  0
 13 15  1  0
 15 14  1  0
  3  4  1  0
  3  2  2  0
 22  3  1  0
  6  7  1  6
 20 19  1  6
  5 17  1  6
 20 21  1  0
 21 22  1  0
  6  5  1  0
 20  5  1  0
  5  4  1  0
  2  1  1  0
M  END
$$$$
