
     RDKit          3D

 28 32  0  0  0  0  0  0  0  0999 V2000
  -13.6911  -18.1652   -3.5807 H   0  0  0  0  0  0  0  0  0  0  0  0
  -14.6954  -17.9344   -2.8942 N   0  0  0  0  0  0  0  0  0  0  0  0
  -14.5855  -18.8980   -1.8989 C   0  0  0  0  0  0  0  0  0  0  0  0
  -15.6827  -19.3543   -1.3130 N   0  0  0  0  0  0  0  0  0  0  0  0
  -15.7685  -20.4237   -0.3048 C   0  0  1  0  0  0  0  0  0  0  0  0
  -16.7806  -20.0375    0.7674 C   0  0  2  0  0  0  0  0  0  0  0  0
  -17.5147  -18.6870    0.7227 C   0  0  0  0  0  0  0  0  0  0  0  0
  -16.4116  -18.9410    1.8004 C   0  0  2  0  0  0  0  0  0  0  0  0
  -15.1402  -18.2316    1.6749 C   0  0  0  0  0  0  0  0  0  0  0  0
  -14.0573  -18.7971    1.6920 O   0  0  0  0  0  0  0  0  0  0  0  0
  -15.2990  -16.9959    1.1501 N   0  0  0  0  0  0  0  0  0  0  0  0
  -14.5877  -15.8621    1.8227 C   0  0  0  0  0  0  0  0  0  0  0  0
  -15.4462  -15.4089    2.9777 C   0  0  2  0  0  0  0  0  0  0  0  0
  -16.4642  -16.3847    3.5393 C   0  0  0  0  0  0  0  0  0  0  0  0
  -16.9102  -15.1356    2.8276 C   0  0  2  0  0  0  0  0  0  0  0  0
  -17.5038  -15.3709    1.4565 C   0  0  0  0  0  0  0  0  0  0  0  0
  -16.2581  -21.7280   -0.9863 C   0  0  0  0  0  0  0  0  0  0  0  0
  -15.8131  -22.7045   -0.0150 N   0  0  0  0  0  0  0  0  0  0  0  0
  -15.9874  -24.0358   -0.2033 C   0  0  0  0  0  0  0  0  0  0  0  0
  -16.6194  -24.7034    0.8213 N   0  0  0  0  0  0  0  0  0  0  0  0
  -16.2582  -26.0207    0.9067 C   0  0  0  0  0  0  0  0  0  0  0  0
  -15.4346  -26.6290   -0.0014 C   0  0  0  0  0  0  0  0  0  0  0  0
  -14.9135  -25.8649   -1.0500 C   0  0  0  0  0  0  0  0  0  0  0  0
  -15.2882  -24.5894   -1.2323 N   0  0  0  0  0  0  0  0  0  0  0  0
  -14.8427  -22.1755    0.9484 C   0  0  0  0  0  0  0  0  0  0  0  0
  -14.4122  -20.8314    0.3051 C   0  0  1  0  0  0  0  0  0  0  0  0
  -13.2855  -20.9869   -0.6628 C   0  0  0  0  0  0  0  0  0  0  0  0
  -12.9722  -19.5142   -1.7297 S   0  0  0  0  0  0  0  0  0  0  0  0
 13 14  1  0
 15 14  1  0
  8  7  1  0
  6  7  1  6
 20 21  4  0
 21 22  4  0
 19 24  4  0
 24 23  4  0
  9 10  2  0
  9 11  1  0
  8  9  1  1
  4  3  1  0
  3 28  1  0
  3  2  2  0
 18 19  1  0
 19 20  4  0
 23 22  4  0
 11 12  1  0
 13 12  1  6
 13 15  1  0
 15 16  1  1
  6  8  1  0
  5  6  1  0
  5  4  1  0
  5 26  1  0
  5 17  1  6
 26 27  1  6
 26 25  1  0
 27 28  1  0
 17 18  1  0
 18 25  1  0
  2  1  1  0
M  END
$$$$
