
     RDKit          3D

 28 32  0  0  0  0  0  0  0  0999 V2000
  -15.7219  -19.2258   -2.8335 H   0  0  0  0  0  0  0  0  0  0  0  0
  -14.7980  -19.0760   -2.4280 N   0  0  0  0  0  0  0  0  0  0  0  0
  -14.5880  -19.3190   -1.1070 C   0  0  0  0  0  0  0  0  0  0  0  0
  -15.5730  -19.7500   -0.3360 N   0  0  0  0  0  0  0  0  0  0  0  0
  -15.5090  -19.9770    1.1100 C   0  0  1  0  0  0  0  0  0  0  0  0
  -16.1920  -18.8430    1.8750 C   0  0  2  0  0  0  0  0  0  0  0  0
  -17.5420  -18.2970    1.4450 C   0  0  0  0  0  0  0  0  0  0  0  0
  -16.2690  -17.4400    1.2670 C   0  0  1  0  0  0  0  0  0  0  0  0
  -16.1130  -16.2700    2.1410 C   0  0  0  0  0  0  0  0  0  0  0  0
  -16.4880  -16.2820    3.3180 O   0  0  0  0  0  0  0  0  0  0  0  0
  -15.5090  -15.2000    1.5560 N   0  0  0  0  0  0  0  0  0  0  0  0
  -15.3340  -13.9550    2.2980 C   0  0  0  0  0  0  0  0  0  0  0  0
  -14.8530  -12.8830    1.3310 C   0  0  2  0  0  0  0  0  0  0  0  0
  -15.1820  -11.4570    1.6480 C   0  0  0  0  0  0  0  0  0  0  0  0
  -15.8770  -12.1750    0.4780 C   0  0  1  0  0  0  0  0  0  0  0  0
  -15.5260  -11.7860   -0.9340 C   0  0  0  0  0  0  0  0  0  0  0  0
  -16.2550  -21.2970    1.4520 C   0  0  0  0  0  0  0  0  0  0  0  0
  -15.2170  -22.2730    1.2110 N   0  0  0  0  0  0  0  0  0  0  0  0
  -15.4820  -23.5770    0.9150 C   0  0  0  0  0  0  0  0  0  0  0  0
  -14.4150  -24.3310    0.5600 N   0  0  0  0  0  0  0  0  0  0  0  0
  -14.7370  -25.6110    0.1470 C   0  0  0  0  0  0  0  0  0  0  0  0
  -16.0500  -26.0410    0.0750 C   0  0  0  0  0  0  0  0  0  0  0  0
  -17.0790  -25.1940    0.4900 C   0  0  0  0  0  0  0  0  0  0  0  0
  -16.8220  -23.9480    0.9410 N   0  0  0  0  0  0  0  0  0  0  0  0
  -13.8560  -21.7180    1.2020 C   0  0  0  0  0  0  0  0  0  0  0  0
  -14.0850  -20.2500    1.6520 C   0  0  1  0  0  0  0  0  0  0  0  0
  -13.0360  -19.2500    1.1780 C   0  0  0  0  0  0  0  0  0  0  0  0
  -12.9360  -19.0220   -0.6170 S   0  0  0  0  0  0  0  0  0  0  0  0
 13 14  1  0
 15 14  1  0
  8  7  1  0
  6  7  1  6
 20 21  2  0
 21 22  1  0
 19 24  2  0
 24 23  1  0
  9 10  2  0
  9 11  1  0
  8  9  1  1
  4  3  1  0
  3 28  1  0
  3  2  2  0
 18 19  1  0
 19 20  1  0
 23 22  2  0
 11 12  1  0
 13 12  1  1
 13 15  1  0
 15 16  1  6
  6  8  1  0
  5  6  1  0
  5  4  1  0
  5 26  1  0
  5 17  1  6
 26 27  1  6
 26 25  1  0
 27 28  1  0
 17 18  1  0
 18 25  1  0
  2  1  1  0
M  END
$$$$
