
     RDKit          3D

 23 25  0  0  0  0  0  0  0  0999 V2000
    7.7820    4.0210  -11.1840 N   0  0  0  0  0  0  0  0  0  0  0  0
    8.9340    4.6800  -11.0940 C   0  0  0  0  0  0  0  0  0  0  0  0
    9.0190    5.9040  -10.9920 O   0  0  0  0  0  0  0  0  0  0  0  0
   10.1830    3.7970  -11.1030 C   0  0  2  0  0  0  0  0  0  0  0  0
   11.2780    4.4920  -10.4100 N   0  0  0  0  0  4  0  0  0  0  0  0
   10.9800    4.7730   -9.3650 N   0  0  0  0  0  0  0  0  0  0  0  0
   10.8300    3.7760   -8.4810 C   0  0  0  0  0  0  0  0  0  0  0  0
   11.0520    2.5930   -8.7330 O   0  0  0  0  0  0  0  0  0  0  0  0
   10.4770    4.1610   -7.2570 C   0  0  0  0  0  0  0  0  0  0  0  0
    9.7810    5.2700   -7.0280 C   0  0  0  0  0  0  0  0  0  0  0  0
    9.1460    5.1000   -5.8730 N   0  0  0  0  0  0  0  0  0  0  0  0
    9.4460    3.8950   -5.3990 C   0  0  0  0  0  0  0  0  0  0  0  0
    9.0740    3.2840   -4.2780 C   0  0  0  0  0  0  0  0  0  0  0  0
    9.5500    2.0130   -3.9800 C   0  0  0  0  0  0  0  0  0  0  0  0
   10.4120    1.4000   -4.8790 C   0  0  0  0  0  0  0  0  0  0  0  0
   10.7670    2.0890   -6.0320 C   0  0  0  0  0  0  0  0  0  0  0  0
   10.2770    3.3080   -6.2580 C   0  0  0  0  0  0  0  0  0  0  0  0
   10.5380    3.5140  -12.4160 C   0  0  0  0  0  0  0  0  0  0  0  0
    9.7450    2.6620  -13.1750 C   0  0  0  0  0  0  0  0  0  0  0  0
   10.1590    2.2690  -14.4440 C   0  0  0  0  0  0  0  0  0  0  0  0
   11.3620    2.7370  -14.9560 C   0  0  0  0  0  0  0  0  0  0  0  0
   12.1500    3.6010  -14.2030 C   0  0  0  0  0  0  0  0  0  0  0  0
   11.7360    3.9910  -12.9360 C   0  0  0  0  0  0  0  0  0  0  0  0
 16 15  2  0
 15 14  1  0
  2  3  2  0
 19 20  2  0
 20 21  1  0
  4 18  1  0
 18 19  1  0
 18 23  2  0
  7  9  1  0
  7  8  2  0
  6  7  1  0
 17 16  1  0
 10 11  1  0
 12 11  1  0
  9 10  2  0
  9 17  1  0
 13 14  2  0
 12 13  1  0
  4  2  1  0
  2  1  1  0
 22 21  2  0
 23 22  1  0
  4  5  1  6
 17 12  2  0
  6  5  1  0
M  CHG  1   5   1
M  END
$$$$
